geometry optimzed in LAMMPS
_audit_creation_date              2020-11-30 
_audit_creation_method            'lammps2cif' 
_symmetry_space_group_name_H-M    'P1' 
_symmetry_Int_Tables_number       1 
_symmetry_cell_setting            triclinic 
loop_ 
_symmetry_equiv_pos_as_xyz 
  x,y,z 
_cell_length_a                    92.64588007 
_cell_length_b                    92.70984138954256 
_cell_length_c                    92.59400144350141 
_cell_angle_alpha                 90.01156863116393 
_cell_angle_beta                  90.00773570361844 
_cell_angle_gamma                 90.04845950678775 
loop_ 
_atom_site_label 
_atom_site_type_symbol 
_atom_site_fract_x 
_atom_site_fract_y 
_atom_site_fract_z 
_atom_site_charge 
N1          N  0.73047963  0.88449154  0.42428174    -0.03300
C2          C  0.72029387  0.88360120  0.41379034    -0.00700
C3          C  0.72023884  0.86993812  0.40781714    -0.23600
C4          C  0.73069355  0.86215743  0.41488834    -0.23800
C5          C  0.73688945  0.87132237  0.42493740    -0.00800
H6          H  0.71366194  0.86617886  0.39891666     0.12900
H7          H  0.73348856  0.85101044  0.41285885     0.13000
N8          N  0.74804867  0.88896751  0.61465839    -0.03300
C9          C  0.74032658  0.88929074  0.62707920    -0.00700
C10         C  0.74089190  0.87598036  0.63378685    -0.23600
C11         C  0.74927560  0.86722667  0.62513754    -0.23800
C12         C  0.75359841  0.87548955  0.61343654    -0.00800
H13         H  0.73584473  0.87296301  0.64388263     0.12900
H14         H  0.75171883  0.85598627  0.62709339     0.13000
N15         N  0.74264630  0.07162920  0.41133205    -0.03300
C16         C  0.74946730  0.08448446  0.40975180    -0.00700
C17         C  0.74452367  0.09168695  0.39768133    -0.23600
C18         C  0.73419238  0.08304750  0.39156800    -0.23800
C19         C  0.73325744  0.07084946  0.40009914    -0.00800
H20         H  0.74773204  0.10230583  0.39403044     0.12900
H21         H  0.72804939  0.08536792  0.38190178     0.13000
N22         N  0.76599108  0.08796581  0.60505916    -0.03300
C23         C  0.76113996  0.08838892  0.61884709    -0.00700
C24         C  0.76405599  0.10164177  0.62499306    -0.23600
C25         C  0.77097536  0.10968026  0.61456598    -0.23800
C26         C  0.77207321  0.10101321  0.60244640    -0.00800
H27         H  0.76082736  0.10531249  0.63560468     0.12900
H28         H  0.77438418  0.12080627  0.61553699     0.13000
O29         O  0.73655616  0.96986912  0.50294108    -0.72800
O30         O  0.74329651  0.00051163  0.53293577    -0.73800
O31         O  0.73966390  0.00035219  0.50243453    -0.62400
O32         O  0.74021558  0.97000862  0.53351123    -0.70800
O33         O  0.76403265  0.96828496  0.53137575    -0.70400
O34         O  0.76313309  0.99713991  0.49893198    -0.61600
O35         O  0.76685862  0.99866672  0.52966072    -0.74100
O36         O  0.76017663  0.96668234  0.50084076    -0.72900
Cu37       Cu  0.73911751  0.98526734  0.51806543     1.04600
Cu38       Cu  0.76437894  0.98262109  0.51510965     1.04300
C39         C  0.74727735  0.96340883  0.49714227     0.93400
C40         C  0.75612950  0.00455897  0.53603465     0.92500
C41         C  0.75126739  0.00332372  0.49558244     0.84700
C42         C  0.75224575  0.96456261  0.53746922     0.91000
N43         N  0.90615682  0.73075682  0.42456520    -0.03300
C44         C  0.90508664  0.72085040  0.41374915    -0.00700
C45         C  0.89067200  0.71848540  0.41054682    -0.23600
C46         C  0.88273191  0.72720282  0.41954044    -0.23800
C47         C  0.89246420  0.73455443  0.42813832    -0.00800
H48         H  0.88631085  0.71109471  0.40262432     0.12900
H49         H  0.87109135  0.72813545  0.41970126     0.13000
N50         N  0.92473646  0.74885685  0.60137450    -0.03300
C51         C  0.92724032  0.74237613  0.61431171    -0.00700
C52         C  0.91621583  0.74579589  0.62382304    -0.23600
C53         C  0.90653837  0.75425381  0.61639148    -0.23800
C54         C  0.91197695  0.75596266  0.60260591    -0.00800
H55         H  0.91514212  0.74232522  0.63492540     0.12900
H56         H  0.89642026  0.75840081  0.62048976     0.13000
N57         N  0.10957352  0.73231201  0.40045339    -0.03300
C58         C  0.10803462  0.72475953  0.38802679    -0.00700
C59         C  0.12080197  0.72494876  0.38031056    -0.23600
C60         C  0.13044848  0.73301224  0.38824122    -0.23800
C61         C  0.12321358  0.73758815  0.40049653    -0.00800
H62         H  0.12277168  0.72006968  0.36987875     0.12900
H63         H  0.14144722  0.73552438  0.38521456     0.13000
N64         N  0.11895942  0.74250966  0.59364878    -0.03300
C65         C  0.11933635  0.73585979  0.60668773    -0.00700
C66         C  0.13165142  0.73985128  0.61415488    -0.23600
C67         C  0.13906010  0.74933332  0.60543087    -0.23800
C68         C  0.13105851  0.75070041  0.59292253    -0.00800
H69         H  0.13476460  0.73646033  0.62489460     0.12900
H70         H  0.14921082  0.75457092  0.60788714     0.13000
O71         O  0.00205477  0.75386382  0.48676383    -0.72800
O72         O  0.03456066  0.75308023  0.51544319    -0.73800
O73         O  0.03248495  0.75234903  0.48471330    -0.62400
O74         O  0.00398711  0.75479124  0.51706785    -0.70800
O75         O  0.00328625  0.73090328  0.51841714    -0.70400
O76         O  0.03099011  0.72848836  0.48496512    -0.61600
O77         O  0.03395942  0.72913184  0.51561008    -0.74100
O78         O  0.00068642  0.73002077  0.48783076    -0.72900
Cu79       Cu  0.01837741  0.75433568  0.50098980     1.04600
Cu80       Cu  0.01722671  0.72878687  0.50175763     1.04300
C81         C  0.99608475  0.74205114  0.48291689     0.93400
C82         C  0.03935195  0.74100738  0.52005881     0.92500
C83         C  0.03592419  0.74010853  0.47939727     0.84700
C84         C  0.99892077  0.74328184  0.52268763     0.91000
N85         N  0.25649173  0.90337408  0.38836122    -0.03300
C86         C  0.25163396  0.88960175  0.38961353    -0.00700
C87         C  0.25493839  0.88190729  0.37725333    -0.23600
C88         C  0.26233030  0.89115650  0.36825360    -0.23800
C89         C  0.26309093  0.90429272  0.37528404    -0.00800
H90         H  0.25248436  0.87069088  0.37513249     0.12900
H91         H  0.26671320  0.88856837  0.35773631     0.13000
N92         N  0.25428374  0.91206604  0.58062135    -0.03300
C93         C  0.24663529  0.89973295  0.58219432    -0.00700
C94         C  0.24952598  0.89351273  0.59546535    -0.23600
C95         C  0.25926087  0.90241842  0.60229528    -0.23800
C96         C  0.26192628  0.91369708  0.59292557    -0.00800
H97         H  0.24527210  0.88345449  0.59959892     0.12900
H98         H  0.26378464  0.90092637  0.61296600     0.13000
N99         N  0.25109333  0.10764377  0.38949159    -0.03300
C100        C  0.24325997  0.11991656  0.39010984    -0.00700
C101        C  0.24593360  0.12845148  0.37818225    -0.23600
C102        C  0.25589057  0.12116197  0.36992455    -0.23800
C103        C  0.25883442  0.10841142  0.37710609    -0.00800
H104        H  0.24101065  0.13872969  0.37566800     0.12900
H105        H  0.26009157  0.12454344  0.35955922     0.13000
N106        N  0.24074947  0.09561790  0.58113408    -0.03300
C107        C  0.23148321  0.10692760  0.58081193    -0.00700
C108        C  0.23257408  0.11485425  0.59342124    -0.23600
C109        C  0.24286460  0.10817378  0.60178738    -0.23800
C110        C  0.24775324  0.09645992  0.59395918    -0.00800
H111        H  0.22684039  0.12466741  0.59607178     0.12900
H112        H  0.24648131  0.11154246  0.61237743     0.13000
O113        O  0.26243619  0.98968981  0.46510313    -0.72800
O114        O  0.26038391  0.02085997  0.49488426    -0.73800
O115        O  0.26212617  0.99036819  0.49559864    -0.62400
O116        O  0.26071503  0.02027270  0.46422633    -0.70800
O117        O  0.23677798  0.01973829  0.46480649    -0.70400
O118        O  0.23834543  0.98801767  0.49435847    -0.61600
O119        O  0.23653317  0.01836410  0.49547425    -0.74100
O120        O  0.23852213  0.98906339  0.46383790    -0.72900
Cu121      Cu  0.26225304  0.00536968  0.47991649     1.04600
Cu122      Cu  0.23670073  0.00377851  0.47956741     1.04300
C123        C  0.25084998  0.98434609  0.45989153     0.93400
C124        C  0.24811374  0.02414233  0.50021666     0.92500
C125        C  0.25045990  0.98430728  0.49979775     0.84700
C126        C  0.24852834  0.02496545  0.45979254     0.91000
N127        N  0.40177914  0.89771436  0.25637881    -0.03300
C128        C  0.40228213  0.88365871  0.25251973    -0.00700
C129        C  0.38969033  0.87675608  0.25667237    -0.23600
C130        C  0.38120935  0.88699130  0.26334741    -0.23800
C131        C  0.38890115  0.89977612  0.26290091    -0.00800
H132        H  0.38676733  0.86564464  0.25459079     0.12900
H133        H  0.37053257  0.88533523  0.26778729     0.13000
N134        N  0.59571440  0.89146758  0.23390913    -0.03300
C135        C  0.59577596  0.87947335  0.22561387    -0.00700
C136        C  0.60902548  0.87266840  0.22622905    -0.23600
C137        C  0.61748783  0.88081554  0.23531856    -0.23800
C138        C  0.60901912  0.89220916  0.23985083    -0.00800
H139        H  0.61206387  0.86273207  0.22090695     0.12900
H140        H  0.62841938  0.87842967  0.23866603     0.13000
N141        N  0.41570922  0.09709874  0.23567998    -0.03300
C142        C  0.41824630  0.10942916  0.22822520    -0.00700
C143        C  0.40674433  0.11880928  0.22962527    -0.23600
C144        C  0.39683891  0.11208901  0.23841296    -0.23800
C145        C  0.40255744  0.09876693  0.24189334    -0.00800
H146        H  0.40578892  0.12947631  0.22497940     0.12900
H147        H  0.38654343  0.11640600  0.24183734     0.13000
N148        N  0.61209170  0.07106582  0.23259089    -0.03300
C149        C  0.61373693  0.08314541  0.22447696    -0.00700
C150        C  0.62721603  0.08916502  0.22663219    -0.23600
C151        C  0.63410509  0.08063459  0.23657258    -0.23800
C152        C  0.62465760  0.06961231  0.23999687    -0.00800
H153        H  0.63136285  0.09900664  0.22190354     0.12900
H154        H  0.64475862  0.08240495  0.24103470     0.13000
O155        O  0.48314989  0.97577365  0.22649023    -0.72800
O156        O  0.51695362  0.00305948  0.22186241    -0.73800
O157        O  0.51366796  0.97257167  0.22399778    -0.62400
O158        O  0.48625170  0.00622240  0.22418838    -0.70800
O159        O  0.48903981  0.00840260  0.24790864    -0.70400
O160        O  0.51521931  0.97385074  0.24786291    -0.61600
O161        O  0.51936426  0.00381777  0.24568179    -0.74100
O162        O  0.48474504  0.97798056  0.25022364    -0.72900
Cu163      Cu  0.49990122  0.98936719  0.22329431     1.04600
Cu164      Cu  0.50210557  0.99106764  0.24873328     1.04300
C165        C  0.47857675  0.97254935  0.23911689     0.93400
C166        C  0.52371639  0.00743100  0.23310042     0.92500
C167        C  0.51899272  0.96807678  0.23590983     0.84700
C168        C  0.48341766  0.01265763  0.23605518     0.91000
N169        N  0.39928141  0.73592016  0.88764267    -0.03300
C170        C  0.40057470  0.74257173  0.87468880    -0.00700
C171        C  0.38908721  0.73878509  0.86587787    -0.23600
C172        C  0.38041326  0.72963596  0.87380333    -0.23800
C173        C  0.38697201  0.72811221  0.88711200    -0.00800
H174        H  0.38693516  0.74268038  0.85507509     0.12900
H175        H  0.37034240  0.72483724  0.87033382     0.13000
N176        N  0.57930656  0.74976975  0.89901689    -0.03300
C177        C  0.57909169  0.75753701  0.88665601    -0.00700
C178        C  0.59191219  0.75586990  0.87922603    -0.23600
C179        C  0.60041180  0.74688650  0.88746518    -0.23800
C180        C  0.59236882  0.74329359  0.89951224    -0.00800
H181        H  0.59497057  0.76110454  0.86923885     0.12900
H182        H  0.61132942  0.74351696  0.88505595     0.13000
N183        N  0.39115714  0.73751186  0.09637373    -0.03300
C184        C  0.39205617  0.74368805  0.10954955    -0.00700
C185        C  0.37957002  0.74116726  0.11732554    -0.23600
C186        C  0.37067636  0.73305273  0.10853090    -0.23800
C187        C  0.37817124  0.73091131  0.09580946    -0.00800
H188        H  0.37717346  0.74488771  0.12813855     0.12900
H189        H  0.36002035  0.72905796  0.11116288     0.13000
N190        N  0.58357427  0.74226680  0.08866611    -0.03300
C191        C  0.58454407  0.75086840  0.10045636    -0.00700
C192        C  0.59751396  0.74853933  0.10749468    -0.23600
C193        C  0.60485839  0.73834682  0.09959599    -0.23800
C194        C  0.59613206  0.73483759  0.08801562    -0.00800
H195        H  0.60124987  0.75368888  0.11729594     0.12900
H196        H  0.61558774  0.73429304  0.10178915     0.13000
O197        O  0.49825397  0.75102220  0.01132951    -0.72800
O198        O  0.46807698  0.75169709  0.98015084    -0.73800
O199        O  0.46788825  0.75127756  0.01084542    -0.62400
O200        O  0.49845676  0.75171960  0.98058256    -0.70800
O201        O  0.49869425  0.72778878  0.97994504    -0.70400
O202        O  0.46773919  0.72736657  0.01055815    -0.61600
O203        O  0.46790277  0.72781523  0.97972221    -0.74100
O204        O  0.49844415  0.72710328  0.01064467    -0.72900
Cu205      Cu  0.48316563  0.75223299  0.99574001     1.04600
Cu206      Cu  0.48316837  0.72666055  0.99520115     1.04300
C207        C  0.50305600  0.73895817  0.01597599     0.93400
C208        C  0.46333650  0.73988317  0.97484418     0.92500
C209        C  0.46313006  0.73931522  0.01571040     0.84700
C210        C  0.50338917  0.73995094  0.97541690     0.91000
N211        N  0.40285950  0.90489981  0.73061096    -0.03300
C212        C  0.40304223  0.89087347  0.73469693    -0.00700
C213        C  0.39244544  0.88323344  0.72748881    -0.23600
C214        C  0.38539113  0.89298146  0.71876363    -0.23800
C215        C  0.39196313  0.90621601  0.72095151    -0.00800
H216        H  0.38981229  0.87193592  0.72880217     0.12900
H217        H  0.37634768  0.89069493  0.71172617     0.13000
N218        N  0.59174739  0.90477772  0.75246974    -0.03300
C219        C  0.59055688  0.89281004  0.76082266    -0.00700
C220        C  0.60304026  0.88469375  0.76001657    -0.23600
C221        C  0.61227755  0.89198560  0.75095177    -0.23800
C222        C  0.60508095  0.90424907  0.74642048    -0.00800
H223        H  0.60527398  0.87467991  0.76558461     0.12900
H224        H  0.62310118  0.88872369  0.74802279     0.13000
N225        N  0.40421630  0.10384343  0.74467664    -0.03300
C226        C  0.40535862  0.11737072  0.75016433    -0.00700
C227        C  0.39384142  0.12573786  0.74570126    -0.23600
C228        C  0.38545232  0.11715852  0.73698837    -0.23800
C229        C  0.39208061  0.10381373  0.73647848    -0.00800
H230        H  0.39178302  0.13689779  0.74842870     0.12900
H231        H  0.37575264  0.12041685  0.73135834     0.13000
N232        N  0.59470131  0.09582897  0.75323081    -0.03300
C233        C  0.59491390  0.10766942  0.76181073    -0.00700
C234        C  0.60741917  0.11547158  0.75947216    -0.23600
C235        C  0.61514616  0.10811779  0.74910150    -0.23800
C236        C  0.60711086  0.09605927  0.74547213    -0.00800
H237        H  0.61047323  0.12553700  0.76454624     0.12900
H238        H  0.62560438  0.11112025  0.74484892     0.13000
O239        O  0.51213174  0.01708628  0.74104952    -0.72800
O240        O  0.48011633  0.98806419  0.73844506    -0.73800
O241        O  0.48162100  0.01834586  0.73974969    -0.62400
O242        O  0.51084084  0.98676133  0.73960171    -0.70800
O243        O  0.51033490  0.98624772  0.76348211    -0.70400
O244        O  0.47972384  0.01713524  0.76355778    -0.61600
O245        O  0.47955597  0.98647783  0.76235293    -0.74100
O246        O  0.51033891  0.01695801  0.76497031    -0.72900
Cu247      Cu  0.49619898  0.00257336  0.73890165     1.04600
Cu248      Cu  0.49495296  0.00163260  0.76444734     1.04300
C249        C  0.51617129  0.02169356  0.75340678     0.93400
C250        C  0.47471586  0.98276051  0.74997941     0.92500
C251        C  0.47601281  0.02279956  0.75152166     0.84700
C252        C  0.51555449  0.98169674  0.75152644     0.91000
N253        N  0.41079698  0.25090105  0.92399541    -0.03300
C254        C  0.39832332  0.25818528  0.92641929    -0.00700
C255        C  0.38899835  0.25656553  0.91490252    -0.23600
C256        C  0.39591312  0.24796644  0.90500684    -0.23800
C257        C  0.40931252  0.24475946  0.91073470    -0.00800
H258        H  0.37830450  0.26113329  0.91384727     0.12900
H259        H  0.39173127  0.24462171  0.89461787     0.13000
N260        N  0.61198616  0.22376812  0.90954834    -0.03300
C261        C  0.62577259  0.22863485  0.90951526    -0.00700
C262        C  0.63268699  0.22438984  0.89697551    -0.23600
C263        C  0.62276140  0.21668449  0.88902973    -0.23800
C264        C  0.61018317  0.21639437  0.89705416    -0.00800
H265        H  0.64357511  0.22707200  0.89370240     0.12900
H266        H  0.62443628  0.21205749  0.87843204     0.13000
N267        N  0.43836962  0.27395330  0.11350921    -0.03300
C268        C  0.42630468  0.28164328  0.11634372    -0.00700
C269        C  0.42248149  0.28003502  0.13069111    -0.23600
C270        C  0.43232070  0.27066394  0.13668973    -0.23800
C271        C  0.44180686  0.26686923  0.12579847    -0.00800
H272        H  0.41295356  0.28430134  0.13592353     0.12900
H273        H  0.43190131  0.26620182  0.14748052     0.13000
N274        N  0.61950051  0.25508595  0.10020473    -0.03300
C275        C  0.61862839  0.25036813  0.11400180    -0.00700
C276        C  0.62951485  0.25630509  0.12229999    -0.23600
C277        C  0.63718018  0.26534178  0.11333156    -0.23800
C278        C  0.63073425  0.26441352  0.09989050    -0.00800
H279        H  0.63160359  0.25431483  0.13362396     0.12900
H280        H  0.64655166  0.27168246  0.11623646     0.13000
O281        O  0.53376540  0.23595875  0.02334871    -0.72800
O282        O  0.50180212  0.23734690  0.99439695    -0.73800
O283        O  0.53212324  0.23313894  0.99296792    -0.62400
O284        O  0.50342210  0.24058113  0.02457424    -0.70800
O285        O  0.50592885  0.26409948  0.02131486    -0.70400
O286        O  0.53588566  0.25661917  0.99105933    -0.61600
O287        O  0.50544599  0.26074666  0.99094086    -0.74100
O288        O  0.53627507  0.25972527  0.02167955    -0.72900
Cu289      Cu  0.51768964  0.23594730  0.00890150     1.04600
Cu290      Cu  0.52104288  0.26112769  0.00615005     1.04300
C291        C  0.53991100  0.24763689  0.02725363     0.93400
C292        C  0.49846708  0.24916380  0.98816690     0.92500
C293        C  0.53863438  0.24374758  0.98699875     0.84700
C294        C  0.49989436  0.25351932  0.02777314     0.91000
N295        N  0.24420911  0.38193820  0.92336979    -0.03300
C296        C  0.23724397  0.37927484  0.91075335    -0.00700
C297        C  0.23989618  0.36528185  0.90628674    -0.23600
C298        C  0.24855507  0.35907022  0.91660859    -0.23800
C299        C  0.25098958  0.36951458  0.92697257    -0.00800
H300        H  0.23602556  0.36017588  0.89651281     0.12900
H301        H  0.25282662  0.34821226  0.91643255     0.13000
N302        N  0.26764465  0.56398844  0.89742365    -0.03300
C303        C  0.26390390  0.56016206  0.88376498    -0.00700
C304        C  0.26890597  0.57027334  0.87399007    -0.23600
C305        C  0.27573509  0.58081419  0.88188835    -0.23800
C306        C  0.27478048  0.57672381  0.89619259    -0.00800
H307        H  0.26699212  0.57043992  0.86246181     0.12900
H308        H  0.28042512  0.59066279  0.87771712     0.13000
N309        N  0.25900384  0.41008510  0.12125776    -0.03300
C310        C  0.26752464  0.39831046  0.12221052    -0.00700
C311        C  0.26706229  0.39277652  0.13606490    -0.23600
C312        C  0.25805005  0.40171332  0.14392092    -0.23800
C313        C  0.25325977  0.41224362  0.13448436    -0.00800
H314        H  0.27255384  0.38325378  0.13998346     0.12900
H315        H  0.25496057  0.40038489  0.15511078     0.13000
N316        N  0.25011932  0.59284947  0.09569793    -0.03300
C317        C  0.25698862  0.60560110  0.09361854    -0.00700
C318        C  0.25316740  0.61515191  0.10444906    -0.23600
C319        C  0.24352058  0.60802258  0.11328884    -0.23800
C320        C  0.24180033  0.59429827  0.10766243    -0.00800
H321        H  0.25652949  0.62628214  0.10549574     0.12900
H322        H  0.23810600  0.61248358  0.12262884     0.13000
O323        O  0.26664317  0.50345253  0.02334768    -0.72800
O324        O  0.26295126  0.47067905  0.99501429    -0.73800
O325        O  0.26561291  0.50113686  0.99289731    -0.62400
O326        O  0.26423292  0.47314136  0.02576230    -0.70800
O327        O  0.24042874  0.47522634  0.02666258    -0.70400
O328        O  0.24173448  0.50285983  0.99322823    -0.61600
O329        O  0.23918319  0.47258240  0.99608078    -0.74100
O330        O  0.24272554  0.50513188  0.02381951    -0.72900
Cu331      Cu  0.26570405  0.48700024  0.00920288     1.04600
Cu332      Cu  0.24020350  0.48900354  0.00993849     1.04300
C333        C  0.25511274  0.50926603  0.02817688     0.93400
C334        C  0.25041308  0.46649863  0.99095916     0.92500
C335        C  0.25394122  0.50645664  0.98787061     0.84700
C336        C  0.25217884  0.47013191  0.03175998     0.91000
N337        N  0.89514351  0.40811271  0.73418361    -0.03300
C338        C  0.89452938  0.39578494  0.72638147    -0.00700
C339        C  0.88114231  0.38939345  0.72781053    -0.23600
C340        C  0.87335679  0.39799616  0.73710136    -0.23800
C341        C  0.88221544  0.40943637  0.74087555    -0.00800
H342        H  0.87761069  0.37933667  0.72303829     0.12900
H343        H  0.86247396  0.39601520  0.74085923     0.13000
N344        N  0.91172005  0.58304128  0.72579779    -0.03300
C345        C  0.91350330  0.59515621  0.71781799    -0.00700
C346        C  0.90036584  0.60185833  0.71554701    -0.23600
C347        C  0.89015861  0.59369587  0.72253885    -0.23800
C348        C  0.89743548  0.58230581  0.72879988    -0.00800
H349        H  0.89847136  0.61180153  0.70973093     0.12900
H350        H  0.87879909  0.59620077  0.72357906     0.13000
N351        N  0.09606164  0.38375128  0.74582898    -0.03300
C352        C  0.10932750  0.38446601  0.75185371    -0.00700
C353        C  0.11788755  0.37333663  0.74680096    -0.23600
C354        C  0.10954376  0.36557968  0.73720375    -0.23800
C355        C  0.09621566  0.37228087  0.73676298    -0.00800
H356        H  0.12895902  0.37110168  0.74977157     0.12900
H357        H  0.11283154  0.35610273  0.73123108     0.13000
N358        N  0.10868060  0.57672855  0.75306164    -0.03300
C359        C  0.12041432  0.57551595  0.76172336    -0.00700
C360        C  0.12827591  0.58819968  0.76155841    -0.23600
C361        C  0.12097545  0.59761259  0.75268565    -0.23800
C362        C  0.10897573  0.59029594  0.74764245    -0.00800
H363        H  0.13816805  0.59040646  0.76737316     0.12900
H364        H  0.12413854  0.60855298  0.75011775     0.13000
O365        O  0.02254146  0.49966499  0.75543676    -0.72800
O366        O  0.98817981  0.47373809  0.75254436    -0.73800
O367        O  0.01859985  0.46940504  0.75491348    -0.62400
O368        O  0.99223914  0.50369544  0.75324074    -0.70800
O369        O  0.99430447  0.50411943  0.72937929    -0.70400
O370        O  0.02029533  0.46935371  0.73102214    -0.61600
O371        O  0.99001646  0.47389793  0.72864251    -0.74100
O372        O  0.02454436  0.49980589  0.73163531    -0.72900
Cu373      Cu  0.00537075  0.48658177  0.75485582     1.04600
Cu374      Cu  0.00739396  0.48677567  0.72933236     1.04300
C375        C  0.02888201  0.50408879  0.74402126     0.93400
C376        C  0.98342261  0.47007621  0.74013323     0.92500
C377        C  0.02363121  0.46395261  0.74328061     0.84700
C378        C  0.98895832  0.50922656  0.74104106     0.91000
N379        N  0.75013146  0.40698219  0.88983136    -0.03300
C380        C  0.75702260  0.40910213  0.87713707    -0.00700
C381        C  0.75583292  0.39709516  0.86838011    -0.23600
C382        C  0.74785635  0.38717333  0.87597984    -0.23800
C383        C  0.74451427  0.39352887  0.88906781    -0.00800
H384        H  0.76014790  0.39576988  0.85760185     0.12900
H385        H  0.74498887  0.37641968  0.87244535     0.13000
N386        N  0.74697374  0.60549929  0.88861926    -0.03300
C387        C  0.75439142  0.60675039  0.87609668    -0.00700
C388        C  0.75129116  0.61976673  0.86949017    -0.23600
C389        C  0.74149362  0.62669385  0.87820926    -0.23800
C390        C  0.73899293  0.61764271  0.88980098    -0.00800
H391        H  0.75550937  0.62368384  0.85932193     0.12900
H392        H  0.73670789  0.63716352  0.87629502     0.13000
N393        N  0.75786022  0.41038169  0.07971546    -0.03300
C394        C  0.76535858  0.41042680  0.09229013    -0.00700
C395        C  0.76205943  0.39808919  0.10011114    -0.23600
C396        C  0.75251251  0.39016055  0.09190288    -0.23800
C397        C  0.75022251  0.39796669  0.07944719    -0.00800
H398        H  0.76610532  0.39514112  0.11066509     0.12900
H399        H  0.74793856  0.37976419  0.09461062     0.13000
N400        N  0.76144995  0.60717714  0.07647792    -0.03300
C401        C  0.77060597  0.60786234  0.08790592    -0.00700
C402        C  0.77079484  0.62164825  0.09362996    -0.23600
C403        C  0.76149524  0.62976956  0.08543428    -0.23800
C404        C  0.75595825  0.62064224  0.07503071    -0.00800
H405        H  0.77704082  0.62539281  0.10277075     0.12900
H406        H  0.75887026  0.64102970  0.08702624     0.13000
O407        O  0.76016969  0.52130694  0.96606838    -0.72800
O408        O  0.76331868  0.49288010  0.99855772    -0.73800
O409        O  0.76080977  0.49071577  0.96836062    -0.62400
O410        O  0.76281979  0.52333320  0.99674081    -0.70800
O411        O  0.73904837  0.52276153  0.99909078    -0.70400
O412        O  0.73686807  0.49098786  0.96944290    -0.61600
O413        O  0.73943142  0.49197921  0.99992887    -0.74100
O414        O  0.73636224  0.52168232  0.96845858    -0.72900
Cu415      Cu  0.76259233  0.50712010  0.98233953     1.04600
Cu416      Cu  0.73708247  0.50687620  0.98430557     1.04300
C417        C  0.74781627  0.52600780  0.96210215     0.93400
C418        C  0.75184474  0.48770713  0.00417805     0.92500
C419        C  0.74858598  0.48560671  0.96454538     0.84700
C420        C  0.75128924  0.52806277  0.00265413     0.91000
N421        N  0.88202530  0.41215205  0.25307156    -0.03300
C422        C  0.88008138  0.40116133  0.26245382    -0.00700
C423        C  0.86650910  0.39517851  0.26070370    -0.23600
C424        C  0.85987485  0.40286833  0.24982239    -0.23800
C425        C  0.86966173  0.41324198  0.24539906    -0.00800
H426        H  0.86202983  0.38607526  0.26648629     0.12900
H427        H  0.84906513  0.40118662  0.24572354     0.13000
N428        N  0.89177624  0.60646286  0.24939654    -0.03300
C429        C  0.89212316  0.61875313  0.25737704    -0.00700
C430        C  0.87955442  0.62652970  0.25531653    -0.23600
C431        C  0.87132450  0.61889667  0.24555551    -0.23800
C432        C  0.87903276  0.60659794  0.24217715    -0.00800
H433        H  0.87681861  0.63680720  0.26013088     0.12900
H434        H  0.86086177  0.62197360  0.24137873     0.13000
N435        N  0.07612876  0.40439781  0.23705801    -0.03300
C436        C  0.08857414  0.40352510  0.22935837    -0.00700
C437        C  0.09500768  0.39025262  0.23166885    -0.23600
C438        C  0.08634467  0.38285306  0.24119936    -0.23800
C439        C  0.07480263  0.39176823  0.24435178    -0.00800
H440        H  0.10498332  0.38636502  0.22701076     0.12900
H441        H  0.08846325  0.37225454  0.24560054     0.13000
N442        N  0.06739603  0.60831615  0.21467457    -0.03300
C443        C  0.07667726  0.60811953  0.20327047    -0.00700
C444        C  0.08088041  0.62208177  0.19995257    -0.23600
C445        C  0.07391242  0.63110492  0.20947569    -0.23800
C446        C  0.06575322  0.62238588  0.21839724    -0.00800
H447        H  0.08851648  0.62533564  0.19172795     0.12900
H448        H  0.07516687  0.64268794  0.21021379     0.13000
O449        O  0.99889414  0.52041442  0.24998681    -0.72800
O450        O  0.96866392  0.48948023  0.25486796    -0.73800
O451        O  0.99909049  0.48962485  0.25125325    -0.62400
O452        O  0.96858581  0.52033774  0.25342535    -0.70800
O453        O  0.96589205  0.51943793  0.22962978    -0.70400
O454        O  0.99595347  0.48834500  0.22761843    -0.61600
O455        O  0.96539055  0.48891788  0.23112311    -0.74100
O456        O  0.99643552  0.51919279  0.22622227    -0.72900
Cu457      Cu  0.98390770  0.50497720  0.25320167     1.04600
Cu458      Cu  0.98085043  0.50391057  0.22781922     1.04300
C459        C  0.00231371  0.52487042  0.23737824     0.93400
C460        C  0.96215855  0.48445601  0.24378118     0.92500
C461        C  0.00230152  0.48398628  0.23906482     0.84700
C462        C  0.96254463  0.52484063  0.24185981     0.91000
N463        N  0.88600798  0.27162441  0.41552378    -0.03300
C464        C  0.88583051  0.28218490  0.40542380    -0.00700
C465        C  0.87257771  0.28242493  0.39851137    -0.23600
C466        C  0.86433376  0.27170547  0.40468329    -0.23800
C467        C  0.87281513  0.26537309  0.41516755    -0.00800
H468        H  0.86939994  0.28930352  0.38962567     0.12900
H469        H  0.85341023  0.26876280  0.40176721     0.13000
N470        N  0.88483419  0.25332127  0.58947753    -0.03300
C471        C  0.88600270  0.25990596  0.60245338    -0.00700
C472        C  0.87299030  0.25947062  0.60972673    -0.23600
C473        C  0.86339960  0.25246085  0.60076028    -0.23800
C474        C  0.87097738  0.24886592  0.58840683    -0.00800
H475        H  0.87077293  0.26364459  0.62041126     0.12900
H476        H  0.85228609  0.24980375  0.60318874     0.13000
N477        N  0.08662811  0.27232204  0.40738854    -0.03300
C478        C  0.08590499  0.28167164  0.39615405    -0.00700
C479        C  0.09856714  0.28137160  0.38826040    -0.23600
C480        C  0.10729842  0.27124766  0.39466203    -0.23800
C481        C  0.09970593  0.26589472  0.40631296    -0.00800
H482        H  0.10092080  0.28738469  0.37852321     0.12900
H483        H  0.11789740  0.26792648  0.39105656     0.13000
N484        N  0.09082328  0.23972842  0.59433202    -0.03300
C485        C  0.08989050  0.24558824  0.60772562    -0.00700
C486        C  0.10260649  0.24344019  0.61521945    -0.23600
C487        C  0.11175366  0.23617915  0.60603029    -0.23800
C488        C  0.10422867  0.23394222  0.59331988    -0.00800
H489        H  0.10505948  0.24701689  0.62607152     0.12900
H490        H  0.12270956  0.23287667  0.60836216     0.13000
O491        O  0.00526892  0.26204497  0.52034216    -0.72800
O492        O  0.97514329  0.26796329  0.48950753    -0.73800
O493        O  0.97476141  0.26323693  0.51970441    -0.62400
O494        O  0.00596334  0.26717686  0.49015088    -0.70800
O495        O  0.00484407  0.24369427  0.48561036    -0.70400
O496        O  0.97392849  0.23960860  0.51595504    -0.61600
O497        O  0.97415561  0.24432357  0.48598268    -0.74100
O498        O  0.00465469  0.23859623  0.51600557    -0.72900
Cu499      Cu  0.99033573  0.26592712  0.50503938     1.04600
Cu500      Cu  0.98942463  0.24073279  0.50075439     1.04300
C501        C  0.00970236  0.24927559  0.52311404     0.93400
C502        C  0.96963372  0.25700670  0.48313766     0.92500
C503        C  0.96933302  0.25088255  0.52244368     0.84700
C504        C  0.01027703  0.25614140  0.48313423     0.91000
O505        O  0.96747870  0.32880771  0.34153737    -0.72800
O506        O  0.99543287  0.34752399  0.31451352    -0.73800
O507        O  0.99784177  0.32871150  0.33848231    -0.62400
O508        O  0.96524638  0.34732366  0.31777947    -0.70800
O509        O  0.96635565  0.36629002  0.33226379    -0.70400
O510        O  0.99951563  0.34756855  0.35303333    -0.61600
O511        O  0.99708930  0.36647655  0.32905895    -0.74100
O512        O  0.96906054  0.34752822  0.35639292    -0.72900
Cu513      Cu  0.98148300  0.33746620  0.32758603     1.04600
Cu514      Cu  0.98307906  0.35765930  0.34320576     1.04300
C515        C  0.96375713  0.33521202  0.35316614     0.93400
C516        C  0.00067469  0.35993011  0.31745270     0.92500
C517        C  0.00384969  0.33507991  0.34913495     0.84700
C518        C  0.96038875  0.35954384  0.32178461     0.91000
O519        O  0.81908145  0.14807300  0.47682201    -0.72800
O520        O  0.83789324  0.17266473  0.50685579    -0.73800
O521        O  0.82113503  0.14727563  0.50727261    -0.62400
O522        O  0.83621134  0.17374831  0.47658866    -0.70800
O523        O  0.81646838  0.18709938  0.47831001    -0.70400
O524        O  0.80082760  0.15994648  0.50822672    -0.61600
O525        O  0.81765817  0.18533987  0.50870495    -0.74100
O526        O  0.79936971  0.16154426  0.47797346    -0.72900
Cu527      Cu  0.82926361  0.15996348  0.49174096     1.04600
Cu528      Cu  0.80788855  0.17394648  0.49329022     1.04300
C529        C  0.80610398  0.15066687  0.47292005     0.93400
C530        C  0.83062689  0.18283557  0.51262628     0.92500
C531        C  0.80862963  0.14947544  0.51263424     0.84700
C532        C  0.82901257  0.18494194  0.47300585     0.91000
O533        O  0.16547917  0.15348066  0.49796609    -0.72800
O534        O  0.14297447  0.17831707  0.47050741    -0.73800
O535        O  0.16402218  0.15598632  0.46768792    -0.62400
O536        O  0.14459982  0.17545314  0.50111636    -0.70800
O537        O  0.16184534  0.19210034  0.50151085    -0.70400
O538        O  0.18122627  0.17269261  0.46820015    -0.61600
O539        O  0.16045461  0.19462078  0.47124950    -0.74100
O540        O  0.18274622  0.17001432  0.49854614    -0.72900
Cu541      Cu  0.15362367  0.16524590  0.48426303     1.04600
Cu542      Cu  0.17216139  0.18291856  0.48487715     1.04300
C543        C  0.17768950  0.15787152  0.50265488     0.93400
C544        C  0.14815309  0.19049821  0.46660414     0.92500
C545        C  0.17582216  0.16120777  0.46284467     0.84700
C546        C  0.15019843  0.18678782  0.50662395     0.91000
O547        O  0.82994801  0.52686740  0.17399291    -0.72800
O548        O  0.81520239  0.49397155  0.15040386    -0.73800
O549        O  0.83003460  0.49651689  0.17661116    -0.62400
O550        O  0.81502414  0.52416493  0.14754434    -0.70800
O551        O  0.83626955  0.52418338  0.13638061    -0.70400
O552        O  0.85047923  0.49439611  0.16447787    -0.61600
O553        O  0.83548933  0.49339898  0.13769414    -0.74100
O554        O  0.85124022  0.52514605  0.16319988    -0.72900
Cu555      Cu  0.82186860  0.51043439  0.16252712     1.04600
Cu556      Cu  0.84414941  0.50926674  0.15000746     1.04300
C557        C  0.84296148  0.53115035  0.17248625     0.93400
C558        C  0.82284299  0.48850529  0.14032397     0.92500
C559        C  0.84236970  0.49065179  0.17500751     0.84700
C560        C  0.82328780  0.52866706  0.13750341     0.91000
O561        O  0.16484498  0.48717578  0.14722553    -0.72800
O562        O  0.13369946  0.51613707  0.15695313    -0.73800
O563        O  0.16160169  0.51720248  0.14356489    -0.62400
O564        O  0.13705199  0.48555789  0.16043296    -0.70800
O565        O  0.14689865  0.48953887  0.18190039    -0.70400
O566        O  0.17159174  0.52105168  0.16499770    -0.61600
O567        O  0.14385176  0.51967588  0.17830075    -0.74100
O568        O  0.17463473  0.49076579  0.16879108    -0.72900
Cu569      Cu  0.14890254  0.50140420  0.15130615     1.04600
Cu570      Cu  0.15956962  0.50538719  0.17423084     1.04300
C571        C  0.17474940  0.48453864  0.15647672     0.93400
C572        C  0.13387706  0.52253273  0.16920887     0.92500
C573        C  0.17067205  0.52390803  0.15151587     0.84700
C574        C  0.13815327  0.48252087  0.17385049     0.91000
O575        O  0.68360781  0.33914913  0.97058692    -0.72800
O576        O  0.66569933  0.32003249  0.00455200    -0.73800
O577        O  0.68307209  0.34481367  0.00044725    -0.62400
O578        O  0.66647729  0.31428728  0.97450289    -0.70800
O579        O  0.68603638  0.30079363  0.97769930    -0.70400
O580        O  0.70253650  0.33111502  0.00333045    -0.61600
O581        O  0.68525537  0.30661244  0.00749716    -0.74100
O582        O  0.70329166  0.32583068  0.97324520    -0.72900
Cu583      Cu  0.67401331  0.33001385  0.98737968     1.04600
Cu584      Cu  0.69498283  0.31562640  0.99049086     1.04300
C585        C  0.69633900  0.33573624  0.96662869     0.93400
C586        C  0.67265667  0.31043396  0.01156772     0.92500
C587        C  0.69542350  0.34255436  0.00613597     0.84700
C588        C  0.67357717  0.30270403  0.97218053     0.91000
O589        O  0.84670064  0.51999988  0.81308029    -0.72800
O590        O  0.82130648  0.49453443  0.83665516    -0.73800
O591        O  0.84320016  0.49003501  0.81552389    -0.62400
O592        O  0.82496502  0.52446214  0.83411509    -0.70800
O593        O  0.80797203  0.52429053  0.81717723    -0.70400
O594        O  0.82659007  0.49059852  0.79825884    -0.61600
O595        O  0.80485499  0.49451625  0.81930565    -0.74100
O596        O  0.82968526  0.52076282  0.79617474    -0.72900
Cu597      Cu  0.83463975  0.50722748  0.82545810     1.04600
Cu598      Cu  0.81672362  0.50756212  0.80710899     1.04300
C599        C  0.84213802  0.52437144  0.80084615     0.93400
C600        C  0.80895227  0.49067329  0.83187309     0.92500
C601        C  0.83789531  0.48502371  0.80381382     0.84700
C602        C  0.81333855  0.52952382  0.82873490     0.91000
O603        O  0.97518649  0.32672634  0.68283648    -0.72800
O604        O  0.00300463  0.29982857  0.66350696    -0.73800
O605        O  0.00536238  0.32213313  0.68425911    -0.62400
O606        O  0.97285100  0.30445604  0.66238993    -0.70800
O607        O  0.97639703  0.31986565  0.64436056    -0.70400
O608        O  0.00849084  0.33853274  0.66719663    -0.61600
O609        O  0.00672192  0.31623865  0.64645523    -0.74100
O610        O  0.97798851  0.34254900  0.66513846    -0.72900
Cu611      Cu  0.98899057  0.31276216  0.67385415     1.04600
Cu612      Cu  0.99248830  0.32988390  0.65516460     1.04300
C613        C  0.97195014  0.33875927  0.67695350     0.93400
C614        C  0.00940553  0.30391131  0.65198603     0.92500
C615        C  0.01223599  0.33298063  0.67928305     0.84700
C616        C  0.96955926  0.30923846  0.64991200     0.91000
O617        O  0.19001264  0.45528982  0.83702518    -0.72800
O618        O  0.16949162  0.48500270  0.81333099    -0.73800
O619        O  0.19253116  0.48539562  0.83345737    -0.62400
O620        O  0.16728095  0.45488658  0.81671932    -0.70800
O621        O  0.15049472  0.45887960  0.83335895    -0.70400
O622        O  0.17761614  0.48754363  0.85209733    -0.61600
O623        O  0.15457957  0.48912767  0.83161634    -0.74100
O624        O  0.17321394  0.45732611  0.85400910    -0.72900
Cu625      Cu  0.18035778  0.47003647  0.82451828     1.04600
Cu626      Cu  0.16340279  0.47335476  0.84341611     1.04300
C627        C  0.18474473  0.45152654  0.84920698     0.93400
C628        C  0.15883149  0.49183656  0.81878197     0.92500
C629        C  0.18934639  0.49097261  0.84563856     0.84700
C630        C  0.15487109  0.45223584  0.82207410     0.91000
O631        O  0.33477306  0.35410833  0.03747707    -0.72800
O632        O  0.35640531  0.33065954  0.00786941    -0.73800
O633        O  0.33215045  0.34935748  0.00738795    -0.62400
O634        O  0.35932693  0.33567262  0.03795607    -0.70800
O635        O  0.34575678  0.31621401  0.04135792    -0.70400
O636        O  0.31721637  0.33129869  0.01245184    -0.61600
O637        O  0.34152626  0.31233037  0.01146036    -0.74100
O638        O  0.32148156  0.33481740  0.04249043    -0.72900
Cu639      Cu  0.34615851  0.34310863  0.02251545     1.04600
Cu640      Cu  0.33097337  0.32302258  0.02708180     1.04300
C641        C  0.32478574  0.34799481  0.04478892     0.93400
C642        C  0.35246546  0.31773563  0.00501787     0.92500
C643        C  0.32029581  0.34267585  0.00528549     0.84700
C644        C  0.35701902  0.32364161  0.04424681     0.91000
O645        O  0.51458149  0.18723613  0.84152757    -0.72800
O646        O  0.48376318  0.17185739  0.81547403    -0.73800
O647        O  0.48432228  0.19066422  0.83992006    -0.62400
O648        O  0.51389837  0.16864472  0.81720877    -0.70800
O649        O  0.51078874  0.14964294  0.83136202    -0.70400
O650        O  0.48194131  0.17212296  0.85476647    -0.61600
O651        O  0.48041761  0.15344404  0.83046813    -0.74100
O652        O  0.51225173  0.16809115  0.85571775    -0.72900
Cu653      Cu  0.49920425  0.18027019  0.82804257     1.04600
Cu654      Cu  0.49621129  0.16018200  0.84359562     1.04300
C655        C  0.51841611  0.18001836  0.85263245     0.93400
C656        C  0.47738932  0.16010487  0.81879622     0.92500
C657        C  0.47861533  0.18500551  0.85114521     0.84700
C658        C  0.51695655  0.15562987  0.82054919     0.91000
O659        O  0.54008801  0.15783546  0.18124902    -0.72800
O660        O  0.51191457  0.18644097  0.16583636    -0.73800
O661        O  0.50992228  0.16102536  0.18272419    -0.62400
O662        O  0.54186167  0.18291010  0.16469937    -0.70800
O663        O  0.53998218  0.17006769  0.14463152    -0.70400
O664        O  0.50720094  0.14809606  0.16281574    -0.61600
O665        O  0.50967886  0.17375775  0.14569512    -0.74100
O666        O  0.53757729  0.14453596  0.16146507    -0.72900
Cu667      Cu  0.52597871  0.17246025  0.17429908     1.04600
Cu668      Cu  0.52348512  0.15861777  0.15293483     1.04300
C669        C  0.54342418  0.14677792  0.17376005     0.93400
C670        C  0.50667898  0.18496507  0.15315371     0.92500
C671        C  0.50350969  0.15098548  0.17580572     0.84700
C672        C  0.54607487  0.18009163  0.15189859     0.91000
O673        O  0.31577142  0.99389384  0.65323316    -0.72800
O674        O  0.33587518  0.02429946  0.67619031    -0.73800
O675        O  0.31362165  0.02404576  0.65498858    -0.62400
O676        O  0.33778562  0.99438458  0.67461631    -0.70800
O677        O  0.35422504  0.99604483  0.65723176    -0.70400
O678        O  0.32987324  0.02629158  0.63758695    -0.61600
O679        O  0.35234432  0.02648101  0.65892497    -0.74100
O680        O  0.33207451  0.99600247  0.63588851    -0.72900
Cu681      Cu  0.32519604  0.00910530  0.66532427     1.04600
Cu682      Cu  0.34272676  0.01130672  0.64679200     1.04300
C683        C  0.32056252  0.99024807  0.64081156     0.93400
C684        C  0.34753581  0.02987717  0.67139914     0.92500
C685        C  0.31768045  0.02971270  0.64310175     0.84700
C686        C  0.34986895  0.99066994  0.66918209     0.91000
O687        O  0.47002847  0.85376925  0.82351850    -0.72800
O688        O  0.50117653  0.83596089  0.84817896    -0.73800
O689        O  0.50015326  0.85839851  0.82728853    -0.62400
O690        O  0.47105073  0.83120547  0.84468681    -0.70800
O691        O  0.47660037  0.81491728  0.82802657    -0.70400
O692        O  0.50328514  0.84299130  0.80918533    -0.61600
O693        O  0.50623897  0.82113110  0.83005826    -0.74100
O694        O  0.47359394  0.83686613  0.80691407    -0.72900
Cu695      Cu  0.48538629  0.84542421  0.83654679     1.04600
Cu696      Cu  0.49004874  0.82844212  0.81796032     1.04300
C697        C  0.46698710  0.84812072  0.81128069     0.93400
C698        C  0.50881365  0.82584644  0.84274297     0.92500
C699        C  0.50624604  0.85491384  0.81541612     0.84700
C700        C  0.46959924  0.81857604  0.83932425     0.91000
O701        O  0.34765492  0.66332906  0.00633967    -0.72800
O702        O  0.32802473  0.63913103  0.97623651    -0.73800
O703        O  0.34910236  0.66147200  0.97561575    -0.62400
O704        O  0.32650491  0.64090109  0.00659071    -0.70800
O705        O  0.30887029  0.65688238  0.00409373    -0.70400
O706        O  0.33211346  0.67832161  0.97458808    -0.61600
O707        O  0.31116623  0.65596466  0.97354298    -0.74100
O708        O  0.32958972  0.67902651  0.00501065    -0.72900
Cu709      Cu  0.33848399  0.65065346  0.99123422     1.04600
Cu710      Cu  0.31986505  0.66813209  0.98921125     1.04300
C711        C  0.34138154  0.67479015  0.01071905     0.93400
C712        C  0.31648249  0.64369719  0.97025866     0.92500
C713        C  0.34415294  0.67318745  0.97028364     0.84700
C714        C  0.31400556  0.64558328  0.01009848     0.91000
O715        O  0.47649280  0.82317151  0.18788211    -0.72800
O716        O  0.50513375  0.80348644  0.16235967    -0.73800
O717        O  0.50649385  0.82510245  0.18316971    -0.62400
O718        O  0.47499100  0.80097007  0.16657579    -0.70800
O719        O  0.47188026  0.81714245  0.14921941    -0.70400
O720        O  0.50228763  0.84222060  0.16688515    -0.61600
O721        O  0.50205876  0.82036112  0.14572342    -0.74100
O722        O  0.47206678  0.83920103  0.17062266    -0.72900
Cu723      Cu  0.49081072  0.81260831  0.17560644     1.04600
Cu724      Cu  0.48686006  0.83031104  0.15752704     1.04300
C725        C  0.46990375  0.83439673  0.18336841     0.93400
C726        C  0.50852175  0.80904899  0.15019755     0.92500
C727        C  0.50955903  0.83724737  0.17747228     0.84700
C728        C  0.46872550  0.80502182  0.15498171     0.91000
O729        O  0.32916255  0.99394968  0.33805691    -0.72800
O730        O  0.35093754  0.02530111  0.31706294    -0.73800
O731        O  0.32831719  0.02451111  0.33783199    -0.62400
O732        O  0.35186118  0.99489534  0.31765112    -0.70800
O733        O  0.33585131  0.99389290  0.29990055    -0.70400
O734        O  0.31260547  0.02433956  0.31970875    -0.61600
O735        O  0.33515888  0.02420335  0.29916061    -0.74100
O736        O  0.31310483  0.99368720  0.32038743    -0.72900
Cu737      Cu  0.34061393  0.00971861  0.32828241     1.04600
Cu738      Cu  0.32359439  0.00901931  0.30919996     1.04300
C739        C  0.31763692  0.98878089  0.33247192     0.93400
C740        C  0.34669843  0.02945256  0.30458624     0.92500
C741        C  0.31681322  0.02919357  0.33191366     0.84700
C742        C  0.34761074  0.98960206  0.30567756     0.91000
O743        O  0.18277063  0.80319420  0.47518782    -0.72800
O744        O  0.20119195  0.82898686  0.50455664    -0.73800
O745        O  0.18208291  0.80539614  0.50548879    -0.62400
O746        O  0.20236460  0.82696218  0.47411940    -0.70800
O747        O  0.18380262  0.84182475  0.47225377    -0.70400
O748        O  0.16357528  0.82045069  0.50448205    -0.61600
O749        O  0.18283223  0.84425562  0.50256294    -0.74100
O750        O  0.16402251  0.81799523  0.47403295    -0.72900
Cu751      Cu  0.19273514  0.81562391  0.48984227     1.04600
Cu752      Cu  0.17289912  0.83165960  0.48822048     1.04300
C753        C  0.17021145  0.80625284  0.47037234     0.93400
C754        C  0.19491643  0.84071869  0.50811954     0.92500
C755        C  0.16974500  0.80945117  0.51009308     0.84700
C756        C  0.19650475  0.83803227  0.46837095     0.91000
O757        O  0.01391611  0.68580481  0.33376914    -0.72800
O758        O  0.97885705  0.66988550  0.31430796    -0.73800
O759        O  0.98429356  0.68491531  0.34042273    -0.62400
O760        O  0.00870200  0.67070552  0.30751269    -0.70800
O761        O  0.01190129  0.64988629  0.31881106    -0.70400
O762        O  0.98696572  0.66395993  0.35167993    -0.61600
O763        O  0.98201205  0.64891994  0.32535654    -0.74100
O764        O  0.01716964  0.66508221  0.34526975    -0.72900
Cu765      Cu  0.99636809  0.67852209  0.32361072     1.04600
Cu766      Cu  0.99966818  0.65622530  0.33569279     1.04300
C767        C  0.02097055  0.67811295  0.34276126     0.93400
C768        C  0.97481432  0.65693620  0.31673630     0.92500
C769        C  0.98169830  0.67670038  0.35119208     0.84700
C770        C  0.01396201  0.65796312  0.30780229     0.91000
O771        O  0.84875813  0.81972738  0.49702704    -0.72800
O772        O  0.82488474  0.83969861  0.52768339    -0.73800
O773        O  0.84976194  0.82123680  0.52762838    -0.62400
O774        O  0.82368332  0.83827104  0.49696873    -0.70800
O775        O  0.80924432  0.81935947  0.49881832    -0.70400
O776        O  0.83577604  0.80181065  0.52815599    -0.61600
O777        O  0.81103791  0.82027960  0.52921541    -0.74100
O778        O  0.83373978  0.80107835  0.49783757    -0.72900
Cu779      Cu  0.83727086  0.83044235  0.51226779     1.04600
Cu780      Cu  0.82197034  0.81001225  0.51357872     1.04300
C781        C  0.84503256  0.80713351  0.49276511     0.93400
C782        C  0.81404293  0.83313690  0.53318472     0.92500
C783        C  0.84705190  0.80856093  0.53236662     0.84700
C784        C  0.81217134  0.83160450  0.49320258     0.91000
O785        O  0.66614787  0.99108604  0.31269747    -0.72800
O786        O  0.67956654  0.95978824  0.33911286    -0.73800
O787        O  0.66333470  0.96077865  0.31335263    -0.62400
O788        O  0.68223333  0.99003843  0.33849902    -0.70800
O789        O  0.66215129  0.99235321  0.35121345    -0.70400
O790        O  0.64309300  0.96281313  0.32599372    -0.61600
O791        O  0.65954664  0.96200351  0.35205512    -0.74100
O792        O  0.64582895  0.99318726  0.32518692    -0.72900
Cu793      Cu  0.67349212  0.97534047  0.32546972     1.04600
Cu794      Cu  0.65192379  0.97764553  0.33905860     1.04300
C795        C  0.65392710  0.99710860  0.31472075     0.93400
C796        C  0.67185918  0.95614780  0.34994731     0.92500
C797        C  0.65023558  0.95716994  0.31563700     0.84700
C798        C  0.67528474  0.99583785  0.34890126     0.91000
O799        O  0.00655180  0.64015351  0.66524972    -0.72800
O800        O  0.03956802  0.66273155  0.64903238    -0.73800
O801        O  0.03699772  0.63836200  0.66787582    -0.62400
O802        O  0.00913804  0.66465440  0.64676049    -0.70800
O803        O  0.00873737  0.67907002  0.66580486    -0.70400
O804        O  0.03595965  0.65305009  0.68675429    -0.61600
O805        O  0.03908336  0.67732953  0.66794658    -0.74100
O806        O  0.00579668  0.65475837  0.68427595    -0.72900
Cu807      Cu  0.02312583  0.65095315  0.65656643     1.04600
Cu808      Cu  0.02242072  0.66654535  0.67684619     1.04300
C809        C  0.00101515  0.64387451  0.67729551     0.93400
C810        C  0.04431137  0.67385845  0.65564693     0.92500
C811        C  0.04052707  0.64146604  0.68087210     0.84700
C812        C  0.00459973  0.67613024  0.65297385     0.91000
O813        O  0.65540264  0.01565679  0.67512916    -0.72800
O814        O  0.67845708  0.98278617  0.65849833    -0.73800
O815        O  0.65356512  0.98495953  0.67617723    -0.62400
O816        O  0.68072290  0.01336005  0.65729362    -0.70800
O817        O  0.69466192  0.01295541  0.67674065    -0.70400
O818        O  0.66728351  0.98562779  0.69581702    -0.61600
O819        O  0.69203509  0.98248921  0.67816009    -0.74100
O820        O  0.66982999  0.01594196  0.69424822    -0.72900
Cu821      Cu  0.66654839  0.99923827  0.66606360     1.04600
Cu822      Cu  0.68142318  0.99925569  0.68688883     1.04300
C823        C  0.65898695  0.02096148  0.68737062     0.93400
C824        C  0.68881393  0.97730198  0.66578189     0.92500
C825        C  0.65620896  0.98089942  0.68910218     0.84700
C826        C  0.69209273  0.01748153  0.66397889     0.91000
O827        O  0.65669945  0.68693758  0.00436895    -0.72800
O828        O  0.67959369  0.66828969  0.97300768    -0.73800
O829        O  0.65534364  0.68650034  0.97389725    -0.62400
O830        O  0.68109241  0.66906263  0.00328054    -0.70800
O831        O  0.66715217  0.64959941  0.00427986    -0.70400
O832        O  0.64053063  0.66766045  0.97489675    -0.61600
O833        O  0.66514856  0.64925261  0.97389678    -0.74100
O834        O  0.64230496  0.66774814  0.00527379    -0.72900
Cu835      Cu  0.66864523  0.67836600  0.98859391     1.04600
Cu836      Cu  0.65326058  0.65786784  0.98962306     1.04300
C837        C  0.64592150  0.68024379  0.00975312     0.93400
C838        C  0.67610452  0.65569651  0.96860795     0.92500
C839        C  0.64392369  0.68001210  0.96977904     0.84700
C840        C  0.67839934  0.65654824  0.00830329     0.91000
C841        C  0.07732807  0.25357385  0.61360099    -0.19700
C842        C  0.07120192  0.26539415  0.60622231     0.36500
C843        C  0.05937773  0.27262502  0.61230925    -0.25700
C844        C  0.05413171  0.26893461  0.62604617     0.02900
C845        C  0.06043586  0.25726758  0.63355089     0.27700
C846        C  0.07186079  0.24961385  0.62715595    -0.24800
N847        N  0.07735294  0.27040737  0.59289865    -0.82200
H848        H  0.05450604  0.28152738  0.60650840     0.13500
C849        C  0.04256410  0.27789086  0.63266115     0.02900
N850        N  0.05545055  0.25344590  0.64774733    -0.80800
H851        H  0.07669561  0.24063223  0.63286713     0.18400
C852        C  0.03002515  0.27129073  0.63809351    -0.25600
C853        C  0.01898802  0.27951008  0.64451027     0.36400
C854        C  0.02042671  0.29464827  0.64519513    -0.19700
C855        C  0.03281563  0.30124131  0.63954444    -0.24900
C856        C  0.04402142  0.29303526  0.63356885     0.27800
H857        H  0.02881898  0.25969704  0.63724579     0.13500
N858        N  0.00628529  0.27258197  0.65012576    -0.82200
H859        H  0.03397332  0.31285598  0.64023826     0.18400
N860        N  0.05701595  0.30000354  0.62870201    -0.80800
H861        H  0.00698625  0.26139490  0.64887267     0.34000
H862        H  0.99750376  0.27597799  0.64390262     0.38500
H863        H  0.05632771  0.31117607  0.63007901     0.34000
H864        H  0.06545913  0.29646137  0.63529943     0.30700
H865        H  0.06117835  0.24458283  0.65172638     0.34000
H866        H  0.05773077  0.26210107  0.65462137     0.30700
H867        H  0.08775016  0.27417324  0.59516099     0.38500
H868        H  0.07153634  0.27917419  0.58883818     0.34000
C869        C  0.11049162  0.22674990  0.58049528    -0.19700
C870        C  0.10379592  0.21483115  0.57381588     0.36500
C871        C  0.11035501  0.20845362  0.56169656    -0.25700
C872        C  0.12372690  0.21340815  0.55649478     0.02900
C873        C  0.13059179  0.22508317  0.56349481     0.27700
C874        C  0.12383336  0.23168465  0.57532914    -0.24800
N875        N  0.09059541  0.20904075  0.57955054    -0.82200
H876        H  0.10506087  0.19951548  0.55632553     0.13500
C877        C  0.13040142  0.20635174  0.54369740     0.02900
N878        N  0.14448070  0.23007342  0.55867575    -0.80800
H879        H  0.12902681  0.24073728  0.58061675     0.18400
C880        C  0.13474543  0.21488297  0.53193093    -0.25600
C881        C  0.14135934  0.20869694  0.51981492     0.36400
C882        C  0.14325888  0.19366467  0.51915888    -0.19700
C883        C  0.13867820  0.18505100  0.53072890    -0.24900
C884        C  0.13253485  0.19126143  0.54314192     0.27800
H885        H  0.13298801  0.22643551  0.53213908     0.13500
N886        N  0.14583849  0.21767531  0.50804863    -0.82200
H887        H  0.14031872  0.17348636  0.53025290     0.18400
N888        N  0.12873520  0.18235724  0.55527315    -0.80800
H889        H  0.13680224  0.22326478  0.50425858     0.34000
H890        H  0.15321185  0.22523715  0.51203231     0.38500
H891        H  0.13099097  0.17152129  0.55310387     0.34000
H892        H  0.13534279  0.18536825  0.56391959     0.30700
H893        H  0.14797714  0.23880422  0.56491600     0.34000
H894        H  0.15187787  0.22173215  0.56036734     0.30700
H895        H  0.08713029  0.20022153  0.57341982     0.38500
H896        H  0.09279028  0.20513410  0.58991160     0.34000
C897        C  0.07948147  0.23951498  0.58368662    -0.19700
C898        C  0.08129926  0.24611775  0.57008483     0.36500
C899        C  0.06940954  0.24722688  0.56072690    -0.25700
C900        C  0.05583647  0.24181839  0.56471318     0.02900
C901        C  0.05413641  0.23480336  0.57809624     0.27700
C902        C  0.06600343  0.23372217  0.58745218    -0.24800
N903        N  0.09505629  0.25202831  0.56603054    -0.82200
H904        H  0.07064576  0.25249373  0.55035261     0.13500
C905        C  0.04347853  0.24371702  0.55476885     0.02900
N906        N  0.04031812  0.22906614  0.58221370    -0.80800
H907        H  0.06473355  0.22862507  0.59790073     0.18400
C908        C  0.03735574  0.23160445  0.54815758    -0.25600
C909        C  0.02598832  0.23299731  0.53819909     0.36400
C910        C  0.02087431  0.24694916  0.53448549    -0.19700
C911        C  0.02679664  0.25902267  0.54158222    -0.24900
C912        C  0.03793872  0.25752291  0.55176876     0.27800
H913        H  0.04155219  0.22100556  0.55074300     0.13500
N914        N  0.01975240  0.22027379  0.53186915    -0.82200
H915        H  0.02282246  0.26972613  0.53911805     0.18400
N916        N  0.04370491  0.26994806  0.55907180    -0.80800
H917        H  0.02517670  0.21101342  0.53533795     0.34000
H918        H  0.00920096  0.21938997  0.53577998     0.38500
H919        H  0.03845815  0.27932916  0.55566109     0.34000
H920        H  0.04143818  0.26880598  0.57007697     0.30700
H921        H  0.04093150  0.22416584  0.59236522     0.34000
H922        H  0.03319000  0.23774210  0.58325347     0.30700
H923        H  0.09749453  0.26041789  0.57316073     0.38500
H924        H  0.09454544  0.25656501  0.55570681     0.34000
C925        C  0.07304511  0.28981711  0.39151318    -0.19700
C926        C  0.05992382  0.28281184  0.38843831     0.36500
C927        C  0.04856042  0.29061713  0.38225462    -0.25700
C928        C  0.05023657  0.30523164  0.37864027     0.02900
C929        C  0.06332316  0.31233066  0.38195417     0.27700
C930        C  0.07456300  0.30453735  0.38843998    -0.24800
N931        N  0.05835411  0.26763214  0.39082088    -0.82200
H932        H  0.03850676  0.28512383  0.37987563     0.13500
C933        C  0.03838792  0.31282708  0.37101061     0.02900
N934        N  0.06531043  0.32727948  0.37831918    -0.80800
H935        H  0.08474282  0.30984305  0.39071066     0.18400
C936        C  0.03307183  0.32580068  0.37665919    -0.25600
C937        C  0.02196716  0.33341962  0.36972742     0.36400
C938        C  0.01581787  0.32776151  0.35691094    -0.19700
C939        C  0.02118332  0.31470457  0.35131654    -0.24900
C940        C  0.03249006  0.30728819  0.35810676     0.27800
H941        H  0.03754572  0.32994930  0.38664389     0.13500
N942        N  0.01698166  0.34681569  0.37574400    -0.82200
H943        H  0.01668639  0.31029860  0.34145731     0.18400
N944        N  0.03813875  0.29426307  0.35183885    -0.80800
H945        H  0.02326980  0.34981685  0.38463036     0.34000
H946        H  0.00655117  0.34507499  0.37969014     0.38500
H947        H  0.03255090  0.29160102  0.34239432     0.34000
H948        H  0.04882211  0.29628696  0.34880998     0.30700
H949        H  0.07550000  0.33086841  0.38159648     0.34000
H950        H  0.06503304  0.32813170  0.36706401     0.30700
H951        H  0.04956484  0.26605726  0.39772906     0.38500
H952        H  0.05594244  0.26274317  0.38093467     0.34000
C953        C  0.10504712  0.25412414  0.41549411    -0.19700
C954        C  0.11021786  0.25671543  0.42957091     0.36500
C955        C  0.11647062  0.24543982  0.43734887    -0.25700
C956        C  0.11774714  0.23164701  0.43127402     0.02900
C957        C  0.11248836  0.22895979  0.41726994     0.27700
C958        C  0.10613999  0.24028339  0.40948416    -0.24800
N959        N  0.10979847  0.27077413  0.43596329    -0.82200
H960        H  0.12068144  0.24750529  0.44807573     0.13500
C961        C  0.12554698  0.22044179  0.43939089     0.02900
N962        N  0.11394606  0.21487740  0.41093947    -0.80800
H963        H  0.10229384  0.23842265  0.39858522     0.18400
C964        C  0.11785876  0.20920312  0.44593493    -0.25600
C965        C  0.12492567  0.19906566  0.45474437     0.36400
C966        C  0.14004461  0.20015907  0.45676295    -0.19700
C967        C  0.14769350  0.21120067  0.44968112    -0.24900
C968        C  0.14059526  0.22133864  0.44103072     0.27800
H969        H  0.10625753  0.20864815  0.44453159     0.13500
N970        N  0.11673004  0.18802220  0.46192897    -0.82200
H971        H  0.15928634  0.21203179  0.45097980     0.18400
N972        N  0.14855042  0.23267809  0.43402123    -0.80800
H973        H  0.10585163  0.18856909  0.45896876     0.34000
H974        H  0.11712883  0.19016479  0.47301012     0.38500
H975        H  0.15954762  0.23191408  0.43643611     0.34000
H976        H  0.14757678  0.23114676  0.42287449     0.30700
H977        H  0.10947687  0.21471619  0.40057005     0.34000
H978        H  0.12497202  0.21280923  0.40972138     0.30700
H979        H  0.11521301  0.27796687  0.42915889     0.38500
H980        H  0.09904375  0.27400273  0.43678196     0.34000
C981        C  0.02167698  0.25793388  0.47211981    -0.19700
C982        C  0.02041603  0.25171817  0.45828462     0.36500
C983        C  0.03133959  0.25411308  0.44800521    -0.25700
C984        C  0.04364434  0.26235874  0.45135053     0.02900
C985        C  0.04493216  0.26843748  0.46530314     0.27700
C986        C  0.03381561  0.26635892  0.47543294    -0.24800
N987        N  0.00789222  0.24331292  0.45461498    -0.82200
H988        H  0.03014895  0.24969252  0.43723974     0.13500
C989        C  0.05491771  0.26472519  0.44006594     0.02900
N990        N  0.05758654  0.27654679  0.46919324    -0.80800
H991        H  0.03475120  0.27109993  0.48609375     0.18400
C992        C  0.05957375  0.27882727  0.43698023    -0.25600
C993        C  0.07020445  0.28149124  0.42648107     0.36400
C994        C  0.07588208  0.26989678  0.41843073    -0.19700
C995        C  0.07119635  0.25582233  0.42141559    -0.24900
C996        C  0.06094221  0.25307771  0.43226865     0.27800
H997        H  0.05491729  0.28781223  0.44282482     0.13500
N998        N  0.07545409  0.29588817  0.42411630    -0.82200
H999        H  0.07554170  0.24695152  0.41518871     0.18400
N1000       N  0.05673260  0.23850062  0.43548998    -0.80800
H1001       H  0.07026576  0.30318448  0.43097866     0.34000
H1002       H  0.08639140  0.29606611  0.42689250     0.38500
H1003       H  0.06211144  0.23122772  0.42874642     0.34000
H1004       H  0.06008476  0.23624121  0.44603103     0.30700
H1005       H  0.05680661  0.28031928  0.47980878     0.34000
H1006       H  0.06638317  0.26949766  0.46890722     0.30700
H1007       H  0.99894911  0.25018137  0.45490507     0.38500
H1008       H  0.00865626  0.23946228  0.44402775     0.34000
C1009       C  0.89935230  0.26637177  0.60823280    -0.19700
C1010       C  0.90658415  0.27784410  0.60117666     0.36500
C1011       C  0.91918141  0.28347747  0.60729669    -0.25700
C1012       C  0.92460535  0.27811631  0.62036100     0.02900
C1013       C  0.91771821  0.26633654  0.62711090     0.27700
C1014       C  0.90507961  0.26064412  0.62101114    -0.24800
N1015       N  0.90108226  0.28465391  0.58836249    -0.82200
H1016       H  0.92434693  0.29265243  0.60219944     0.13500
C1017       C  0.93641397  0.28602612  0.62766554    -0.19900
N1018       N  0.92351967  0.26035351  0.64020557    -0.80800
H1019       H  0.89965907  0.25167831  0.62621781     0.18400
C1020       C  0.93375348  0.29184903  0.64138925    -0.25600
C1021       C  0.94432455  0.29988128  0.64863163     0.36400
C1022       C  0.95779215  0.30218509  0.64195941    -0.19700
C1023       C  0.96038804  0.29670887  0.62808402    -0.24900
C1024       C  0.94983696  0.28848659  0.62089092     0.27800
H1025       H  0.92330290  0.29023422  0.64639744     0.13500
N1026       N  0.94142834  0.30582350  0.66268569    -0.82200
H1027       H  0.97083297  0.29842088  0.62309810     0.18400
N1028       N  0.95274440  0.28244392  0.60689143    -0.80800
H1029       H  0.93100864  0.30311140  0.66607937     0.34000
H1030       H  0.94169803  0.31706218  0.66175899     0.38500
H1031       H  0.96311745  0.28526055  0.60344196     0.34000
H1032       H  0.95261331  0.27121463  0.60793386     0.30700
H1033       H  0.91712822  0.25178502  0.64382508     0.34000
H1034       H  0.93365390  0.25603992  0.63776315     0.30700
H1035       H  0.89092087  0.28076731  0.58548595     0.38500
H1036       H  0.90817230  0.28229711  0.57989992     0.34000
C1037       C  0.86531420  0.23945135  0.57693618    -0.19700
C1038       C  0.85310929  0.24320887  0.56854786     0.36500
C1039       C  0.84778637  0.23328248  0.55850000    -0.25700
C1040       C  0.85432271  0.21976791  0.55662935     0.02900
C1041       C  0.86655490  0.21609617  0.56488933     0.27700
C1042       C  0.87200000  0.22605577  0.57488232    -0.24800
N1043       N  0.84599988  0.25695883  0.56971201    -0.82200
H1044       H  0.83853030  0.23620886  0.55196665     0.13500
C1045       C  0.84833480  0.20970277  0.54579150     0.02900
N1046       N  0.87319131  0.20217289  0.56330190    -0.80800
H1047       H  0.88126983  0.22320073  0.58142423     0.18400
C1048       C  0.85731224  0.20452583  0.53474979    -0.25600
C1049       C  0.85187322  0.19548358  0.52389079     0.36400
C1050       C  0.83709884  0.19177260  0.52403346    -0.19700
C1051       C  0.82817254  0.19683485  0.53516415    -0.24900
C1052       C  0.83368651  0.20559784  0.54618011     0.27800
H1053       H  0.86853771  0.20780640  0.53445213     0.13500
N1054       N  0.86119560  0.19038220  0.51257380    -0.82200
H1055       H  0.81688084  0.19377262  0.53536798     0.18400
N1056       N  0.82452232  0.21028308  0.55780130    -0.80800
H1057       H  0.87177425  0.19396720  0.51420954     0.34000
H1058       H  0.85768543  0.19499817  0.50288715     0.38500
H1059       H  0.81403314  0.20633625  0.55644146     0.34000
H1060       H  0.82848316  0.20571193  0.56733121     0.30700
H1061       H  0.88211777  0.20122151  0.57014506     0.34000
H1062       H  0.86569688  0.19442632  0.56665079     0.30700
H1063       H  0.85123230  0.26378838  0.57696990     0.38500
H1064       H  0.84672913  0.26201973  0.55964659     0.34000
C1065       C  0.89637396  0.25094744  0.57931110    -0.19700
C1066       C  0.89532031  0.25584888  0.56495839     0.36500
C1067       C  0.90720546  0.25452417  0.55567517    -0.25700
C1068       C  0.92024898  0.24868839  0.56064309     0.02900
C1069       C  0.92130124  0.24361204  0.57493960     0.27700
C1070       C  0.90927260  0.24462922  0.58408447    -0.24800
N1071       N  0.88247672  0.26286778  0.56003860    -0.82200
H1072       H  0.90644356  0.25858111  0.54472446     0.13500
C1073       C  0.93298247  0.24871152  0.55104067     0.02900
N1074       N  0.93466202  0.23769851  0.58014354    -0.80800
H1075       H  0.91000570  0.24077454  0.59509734     0.18400
C1076       C  0.94455338  0.25790579  0.55427625    -0.25600
C1077       C  0.95672257  0.25856952  0.54526897     0.36400
C1078       C  0.95730260  0.24976676  0.53283043    -0.19700
C1079       C  0.94581781  0.24035446  0.52977677    -0.24900
C1080       C  0.93358138  0.23982519  0.53872381     0.27800
H1081       H  0.94398638  0.26468835  0.56379686     0.13500
N1082       N  0.96848485  0.26809761  0.54871831    -0.82200
H1083       H  0.94621834  0.23370205  0.52015984     0.18400
N1084       N  0.92170780  0.23043244  0.53531542    -0.80800
H1085       H  0.96628570  0.27388233  0.55816063     0.34000
H1086       H  0.97752769  0.26171469  0.55089096     0.38500
H1087       H  0.92378273  0.22471783  0.52580298     0.34000
H1088       H  0.92091453  0.22279723  0.54358536     0.30700
H1089       H  0.93370089  0.23466092  0.59097663     0.34000
H1090       H  0.93672102  0.22828076  0.57428721     0.30700
H1091       H  0.88523970  0.27327803  0.55668216     0.38500
H1092       H  0.87861336  0.25722567  0.55105553     0.34000
C1093       C  0.89838278  0.29107202  0.40103623    -0.19700
C1094       C  0.89681169  0.30590212  0.39810160     0.36500
C1095       C  0.90826981  0.31359552  0.39190243    -0.25700
C1096       C  0.92129488  0.30669787  0.38861496     0.02900
C1097       C  0.92320995  0.29205375  0.39218204     0.27700
C1098       C  0.91170249  0.28436295  0.39837714    -0.24800
N1099       N  0.88351882  0.31313187  0.40122650    -0.82200
H1100       H  0.90681584  0.32486272  0.38914463     0.13500
C1101       C  0.93204717  0.31435651  0.37971566     0.02900
N1102       N  0.93666737  0.28497929  0.38909006    -0.80800
H1103       H  0.91290134  0.27292434  0.40033956     0.18400
C1104       C  0.94343071  0.32184974  0.38628736    -0.25600
C1105       C  0.95393250  0.32892295  0.37786744     0.36400
C1106       C  0.95294695  0.32833379  0.36264821    -0.19700
C1107       C  0.94143768  0.32090812  0.35617539    -0.24900
C1108       C  0.93091671  0.31399765  0.36456145     0.27800
H1109       H  0.94415777  0.32206380  0.39796564     0.13500
N1110       N  0.96569243  0.33642397  0.38467579    -0.82200
H1111       H  0.94058379  0.32061387  0.34450403     0.18400
N1112       N  0.91897767  0.30672924  0.35778628    -0.80800
H1113       H  0.96477062  0.33586742  0.39591761     0.34000
H1114       H  0.97522259  0.33103811  0.38194923     0.38500
H1115       H  0.91955970  0.30774206  0.34655545     0.34000
H1116       H  0.91988954  0.29572609  0.36006390     0.30700
H1117       H  0.93636293  0.27424650  0.39255055     0.34000
H1118       H  0.93794913  0.28470422  0.37787942     0.30700
H1119       H  0.88573969  0.32161816  0.40832715     0.38500
H1120       H  0.87958905  0.31755009  0.39161139     0.34000
C1121       C  0.86811568  0.25308917  0.42409397    -0.19700
C1122       C  0.86478969  0.25451979  0.43895315     0.36500
C1123       C  0.85920118  0.24260859  0.44642090    -0.25700
C1124       C  0.85672757  0.22946428  0.43935599     0.02900
C1125       C  0.86028796  0.22801549  0.42464347     0.27700
C1126       C  0.86590685  0.23981910  0.41716200    -0.24800
N1127       N  0.86618326  0.26794201  0.44661356    -0.82200
H1128       H  0.85635435  0.24373439  0.45771989     0.13500
C1129       C  0.84978288  0.21757499  0.44733726     0.02900
N1130       N  0.85812303  0.21472841  0.41704713    -0.80800
H1131       H  0.86837782  0.23870097  0.40577295     0.18400
C1132       C  0.83474575  0.21613972  0.44675426    -0.25600
C1133       C  0.82758722  0.20545861  0.45481707     0.36400
C1134       C  0.83577394  0.19585794  0.46343149    -0.19700
C1135       C  0.85091706  0.19715321  0.46360636    -0.24900
C1136       C  0.85798627  0.20799171  0.45572932     0.27800
H1137       H  0.82856969  0.22359442  0.44019300     0.13500
N1138       N  0.81212908  0.20427958  0.45409309    -0.82200
H1139       H  0.85726585  0.18995558  0.47028187     0.18400
N1140       N  0.87341072  0.20955039  0.45648077    -0.80800
H1141       H  0.80799030  0.20801367  0.46390169     0.34000
H1142       H  0.80801136  0.21119667  0.44618365     0.38500
H1143       H  0.87784638  0.20176826  0.46333556     0.34000
H1144       H  0.87757284  0.20753396  0.44618350     0.30700
H1145       H  0.84717909  0.21203300  0.41759634     0.34000
H1146       H  0.86402596  0.20666271  0.42226477     0.30700
H1147       H  0.86953481  0.27630963  0.43987584     0.38500
H1148       H  0.87418504  0.26659716  0.45445895     0.34000
C1149       C  0.89749144  0.26861820  0.42553313    -0.19700
C1150       C  0.90567175  0.25576786  0.42476604     0.36500
C1151       C  0.91710758  0.25369113  0.43446253    -0.25700
C1152       C  0.92055074  0.26410804  0.44494441     0.02900
C1153       C  0.91215618  0.27678658  0.44586192     0.27700
C1154       C  0.90086204  0.27897512  0.43600619    -0.24800
N1155       N  0.90324387  0.24503381  0.41383666    -0.82200
H1156       H  0.92364088  0.24404826  0.43350810     0.13500
C1157       C  0.93329947  0.26193570  0.45449442     0.02900
N1158       N  0.91511548  0.28735923  0.45683278    -0.80800
H1159       H  0.89453440  0.28878355  0.43648516     0.18400
C1160       C  0.94392300  0.27273941  0.45523219    -0.25600
C1161       C  0.95595836  0.27137736  0.46437279     0.36400
C1162       C  0.95754956  0.25880339  0.47280339    -0.19700
C1163       C  0.94714446  0.24779980  0.47173904    -0.24900
C1164       C  0.93495641  0.24929761  0.46282292     0.27800
H1165       H  0.94281984  0.28229806  0.44859338     0.13500
N1166       N  0.96660791  0.28264619  0.46499760    -0.82200
H1167       H  0.94827794  0.23816386  0.47826305     0.18400
N1168       N  0.92412787  0.23818069  0.46242874    -0.80800
H1169       H  0.96372730  0.29121830  0.45825166     0.34000
H1170       H  0.97625796  0.27845223  0.46092522     0.38500
H1171       H  0.92700304  0.22958400  0.46914556     0.34000
H1172       H  0.91460690  0.24252058  0.46664668     0.30700
H1173       H  0.90801302  0.29607622  0.45596539     0.34000
H1174       H  0.91311879  0.28254342  0.46684441     0.30700
H1175       H  0.89528090  0.24821536  0.40654295     0.38500
H1176       H  0.89953870  0.23570562  0.41898938     0.34000
C1177       C  0.05805028  0.62762356  0.23142181    -0.19700
C1178       C  0.04807427  0.63907980  0.23069272     0.36500
C1179       C  0.04146417  0.64403961  0.24344550    -0.25700
C1180       C  0.04480765  0.63792498  0.25693135     0.02900
C1181       C  0.05497591  0.62659420  0.25761987     0.27700
C1182       C  0.06134546  0.62146442  0.24484246    -0.24800
N1183       N  0.04458497  0.64550170  0.21700197    -0.82200
H1184       H  0.03353759  0.65260437  0.24285485     0.13500
C1185       C  0.03731283  0.64319738  0.27017864     0.02900
N1186       N  0.05897574  0.62051007  0.27132600    -0.80800
H1187       H  0.06923890  0.61286578  0.24539176     0.18400
C1188       C  0.03000741  0.63327843  0.27900602    -0.25600
C1189       C  0.02251385  0.63775100  0.29143591     0.36400
C1190       C  0.02224309  0.65255524  0.29514173    -0.19700
C1191       C  0.02953447  0.66248111  0.28627112    -0.24900
C1192       C  0.03716958  0.65795992  0.27393332     0.27800
H1193       H  0.02990554  0.62198225  0.27600078     0.13500
N1194       N  0.01486546  0.62733565  0.30003402    -0.82200
H1195       H  0.02940181  0.67383060  0.28906120     0.18400
N1196       N  0.04486446  0.66828583  0.26527097    -0.80800
H1197       H  0.01637176  0.61692479  0.29595904     0.34000
H1198       H  0.00384301  0.62956794  0.29909466     0.38500
H1199       H  0.04362565  0.67868928  0.26945106     0.34000
H1200       H  0.05585235  0.66581832  0.26596510     0.30700
H1201       H  0.06654096  0.61225905  0.26995458     0.34000
H1202       H  0.06407868  0.62861182  0.27730325     0.30700
H1203       H  0.03953951  0.63760889  0.21070360     0.38500
H1204       H  0.03711020  0.65384017  0.21833436     0.34000
C1205       C  0.12274821  0.53350507  0.17310465    -0.19700
C1206       C  0.11509749  0.54158479  0.16260875     0.36500
C1207       C  0.10645309  0.55330209  0.16703623    -0.25700
C1208       C  0.10491865  0.55677981  0.18168594     0.02900
C1209       C  0.11145162  0.54797103  0.19221100     0.27700
C1210       C  0.12043420  0.53657512  0.18781678    -0.24800
N1211       N  0.11653965  0.53830338  0.14750931    -0.82200
H1212       H  0.10116038  0.55997972  0.15902740     0.13500
C1213       C  0.09744329  0.57027740  0.18592022     0.02900
N1214       N  0.10883004  0.55055225  0.20731502    -0.80800
H1215       H  0.12582384  0.53015914  0.19597149     0.18400
C1216       C  0.08231825  0.57075217  0.18662350    -0.25600
C1217       C  0.07512361  0.58324745  0.19150576     0.36400
C1218       C  0.08329850  0.59512584  0.19649550    -0.19700
C1219       C  0.09838311  0.59484422  0.19495321    -0.24900
C1220       C  0.10551229  0.58266811  0.18948010     0.27800
H1221       H  0.07615079  0.56136859  0.18335624     0.13500
N1222       N  0.05964106  0.58397831  0.19120704    -0.82200
H1223       H  0.10469581  0.60411221  0.19827582     0.18400
N1224       N  0.12088180  0.58294458  0.18722665    -0.80800
H1225       H  0.05528544  0.57439486  0.18714662     0.34000
H1226       H  0.05675385  0.59216459  0.18400377     0.38500
H1227       H  0.12511127  0.59306126  0.18988598     0.34000
H1228       H  0.12565248  0.57556646  0.19427472     0.30700
H1229       H  0.11415312  0.54287586  0.21363807     0.34000
H1230       H  0.11325313  0.56054133  0.21006997     0.30700
H1231       H  0.11157382  0.52832473  0.14575395     0.38500
H1232       H  0.11082746  0.54575767  0.14125878     0.34000
C1233       C  0.05903066  0.59647725  0.22041249    -0.19700
C1234       C  0.06558981  0.58377586  0.22561929     0.36500
C1235       C  0.05686479  0.57188570  0.22941140    -0.25700
C1236       C  0.04174505  0.57275399  0.22859803     0.02900
C1237       C  0.03521535  0.58580094  0.22436171     0.27700
C1238       C  0.04392157  0.59749478  0.22026489    -0.24800
N1239       N  0.08102032  0.58300101  0.22687640    -0.82200
H1240       H  0.06182507  0.56189605  0.23289286     0.13500
C1241       C  0.03271307  0.55980721  0.23138109     0.02900
N1242       N  0.01974896  0.58698945  0.22393245    -0.80800
H1243       H  0.03892811  0.60733107  0.21642172     0.18400
C1244       C  0.02454362  0.55899016  0.24408475    -0.25600
C1245       C  0.01460361  0.54769836  0.24632159     0.36400
C1246       C  0.01296747  0.53682515  0.23567626    -0.19700
C1247       C  0.02130017  0.53765768  0.22300488    -0.24900
C1248       C  0.03109870  0.54906443  0.22073421     0.27800
H1249       H  0.02562403  0.56746177  0.25208011     0.13500
N1250       N  0.00580526  0.54757202  0.25911247    -0.82200
H1251       H  0.02007152  0.52944058  0.21477425     0.18400
N1252       N  0.03922845  0.54996295  0.20753754    -0.80800
H1253       H  0.00844515  0.55622778  0.26585848     0.34000
H1254       H  0.99510762  0.54916922  0.25588460     0.38500
H1255       H  0.03686581  0.54120460  0.20082535     0.34000
H1256       H  0.03583230  0.55920795  0.20203955     0.30700
H1257       H  0.01666255  0.59736031  0.22075522     0.34000
H1258       H  0.01597450  0.57992566  0.21597722     0.30700
H1259       H  0.08422026  0.59067524  0.23450921     0.38500
H1260       H  0.08415120  0.57293262  0.23087154     0.34000
C1261       C  0.01085386  0.36662872  0.30714822    -0.19700
C1262       C  0.02330303  0.37411908  0.31176023     0.36500
C1263       C  0.03319043  0.37922488  0.30138965    -0.25700
C1264       C  0.03071856  0.37722604  0.28653529     0.02900
C1265       C  0.01784885  0.37041436  0.28199188     0.27700
C1266       C  0.00822890  0.36495655  0.29233395    -0.24800
N1267       N  0.02611183  0.37607225  0.32690738    -0.82200
H1268       H  0.04309511  0.38434001  0.30492715     0.13500
C1269       C  0.04201534  0.38136876  0.27584131     0.02900
N1270       N  0.01462769  0.36903041  0.26686081    -0.80800
H1271       H  0.99853816  0.35942436  0.28880722     0.18400
C1272       C  0.04658253  0.37106327  0.26571063    -0.25600
C1273       C  0.05687595  0.37442775  0.25517174     0.36400
C1274       C  0.06327126  0.38820915  0.25495351    -0.19700
C1275       C  0.05902043  0.39845161  0.26530924    -0.24900
C1276       C  0.04828129  0.39527059  0.27559648     0.27800
H1277       H  0.04204978  0.36028536  0.26590605     0.13500
N1278       N  0.06057335  0.36386797  0.24450516    -0.82200
H1279       H  0.06414913  0.40894039  0.26546971     0.18400
N1280       N  0.04366162  0.40611495  0.28568178    -0.80800
H1281       H  0.06445827  0.35472022  0.24983757     0.34000
H1282       H  0.05114759  0.36096678  0.23900869     0.38500
H1283       H  0.04936817  0.41571776  0.28407224     0.34000
H1284       H  0.03282943  0.40839073  0.28349406     0.30700
H1285       H  0.00479450  0.36369965  0.26533153     0.34000
H1286       H  0.01335995  0.37942889  0.26268498     0.30700
H1287       H  0.02779127  0.36587617  0.33142830     0.38500
H1288       H  0.03565315  0.38190413  0.32845644     0.34000
C1289       C  0.09491385  0.41509061  0.22020431    -0.19700
C1290       C  0.10967749  0.41866197  0.22141989     0.36500
C1291       C  0.11556355  0.42952203  0.21271842    -0.25700
C1292       C  0.10699531  0.43700850  0.20280230     0.02900
C1293       C  0.09225596  0.43349120  0.20140213     0.27700
C1294       C  0.08635034  0.42247076  0.21008217    -0.24800
N1295       N  0.11867617  0.41156924  0.23179880    -0.82200
H1296       H  0.12687102  0.43230925  0.21388168     0.13500
C1297       C  0.11362401  0.44903855  0.19465479     0.02900
N1298       N  0.08340483  0.44108787  0.19118167    -0.80800
H1299       H  0.07508502  0.41959233  0.20888048     0.18400
C1300       C  0.11951408  0.44652810  0.18093489    -0.25600
C1301       C  0.12724191  0.45741777  0.17363356     0.36400
C1302       C  0.12917309  0.47099415  0.18034517    -0.19700
C1303       C  0.12307729  0.47346213  0.19400206    -0.24900
C1304       C  0.11525674  0.46264885  0.20118246     0.27800
H1305       H  0.11837743  0.43594134  0.17610082     0.13500
N1306       N  0.13380890  0.45445270  0.15988396    -0.82200
H1307       H  0.12452539  0.48386868  0.19913910     0.18400
N1308       N  0.10930144  0.46525713  0.21527998    -0.80800
H1309       H  0.13218423  0.44367453  0.15697299     0.34000
H1310       H  0.12843444  0.46062881  0.15212873     0.38500
H1311       H  0.11161576  0.47576633  0.21867325     0.34000
H1312       H  0.09807274  0.46453889  0.21443573     0.30700
H1313       H  0.07283742  0.43713272  0.19141351     0.34000
H1314       H  0.08287383  0.45186321  0.19447399     0.30700
H1315       H  0.12293036  0.41939208  0.23873363     0.38500
H1316       H  0.12725902  0.40675705  0.22627483     0.34000
C1317       C  0.06578087  0.41597272  0.23698369    -0.19700
C1318       C  0.06942642  0.42976625  0.24220767     0.36500
C1319       C  0.05884522  0.44062519  0.24251524    -0.25700
C1320       C  0.04469067  0.43784416  0.23784522     0.02900
C1321       C  0.04104212  0.42398596  0.23271642     0.27700
C1322       C  0.05166240  0.41319905  0.23229690    -0.24800
N1323       N  0.08378099  0.43256822  0.24736364    -0.82200
H1324       H  0.06160197  0.45129022  0.24643671     0.13500
C1325       C  0.03381666  0.44957739  0.23827430     0.02900
N1326       N  0.02654024  0.42090830  0.22812117    -0.80800
H1327       H  0.04895816  0.40250270  0.22843562     0.18400
C1328       C  0.02757507  0.45432846  0.22534953    -0.25600
C1329       C  0.01743602  0.46560853  0.22518699     0.36400
C1330       C  0.01331295  0.47224847  0.23837034    -0.19700
C1331       C  0.01960899  0.46733154  0.25131999    -0.24900
C1332       C  0.02974191  0.45605366  0.25140631     0.27800
H1333       H  0.03081385  0.44931073  0.21528695     0.13500
N1334       N  0.01139580  0.47024903  0.21166113    -0.82200
H1335       H  0.01653297  0.47219560  0.26149843     0.18400
N1336       N  0.03580139  0.45102514  0.26478770    -0.80800
H1337       H  0.01498726  0.46370473  0.20319569     0.34000
H1338       H  0.01540253  0.48058380  0.20955747     0.38500
H1339       H  0.03170826  0.45692957  0.27349154     0.34000
H1340       H  0.03243271  0.44035822  0.26626438     0.30700
H1341       H  0.02567248  0.41022625  0.22460126     0.34000
H1342       H  0.01982964  0.42188738  0.23714744     0.30700
H1343       H  0.08551605  0.42601769  0.25638918     0.38500
H1344       H  0.08471522  0.44324154  0.25088444     0.34000
C1345       C  0.90419167  0.62373836  0.26665980    -0.19700
C1346       C  0.91847167  0.62471526  0.26143599     0.36500
C1347       C  0.92945869  0.62960045  0.27068779    -0.25700
C1348       C  0.92635301  0.63402172  0.28482232     0.02900
C1349       C  0.91205831  0.63346131  0.28994117     0.27700
C1350       C  0.90110142  0.62829748  0.28079738    -0.24800
N1351       N  0.92168509  0.62125665  0.24665641    -0.82200
H1352       H  0.94045655  0.63034005  0.26676740     0.13500
C1353       C  0.93820943  0.63961692  0.29393544     0.02900
N1354       N  0.90876624  0.63815953  0.30436445    -0.80800
H1355       H  0.89009565  0.62774805  0.28472270     0.18400
C1356       C  0.93900033  0.65443272  0.29676282    -0.25600
C1357       C  0.95071011  0.66026495  0.30439076     0.36400
C1358       C  0.96185523  0.65112173  0.30934622    -0.19700
C1359       C  0.96074810  0.63619080  0.30691238    -0.24900
C1360       C  0.94903060  0.63035750  0.29921581     0.27800
H1361       H  0.93061139  0.66154241  0.29278584     0.13500
N1362       N  0.95115120  0.67546047  0.30717054    -0.82200
H1363       H  0.96920619  0.62908252  0.31072557     0.18400
N1364       N  0.94811761  0.61510467  0.29657323    -0.80800
H1365       H  0.94187249  0.67824379  0.31295892     0.34000
H1366       H  0.95084891  0.68085118  0.29725764     0.38500
H1367       H  0.95697581  0.60978019  0.30109587     0.34000
H1368       H  0.93895523  0.61125710  0.30192837     0.30700
H1369       H  0.89771367  0.63715410  0.30642242     0.34000
H1370       H  0.91402920  0.63120433  0.31151975     0.30700
H1371       H  0.91620387  0.62864767  0.24013195     0.38500
H1372       H  0.93269077  0.62259927  0.24454777     0.34000
C1373       C  0.87405101  0.59551282  0.23176635    -0.19700
C1374       C  0.87298485  0.58084391  0.23559741     0.36500
C1375       C  0.86831782  0.57072905  0.22533545    -0.25700
C1376       C  0.86447880  0.57505439  0.21134211     0.02900
C1377       C  0.86538529  0.58974000  0.20750382     0.27700
C1378       C  0.87009776  0.59984794  0.21779833    -0.24800
N1379       N  0.87619038  0.57623635  0.24999948    -0.82200
H1380       H  0.86745528  0.55946988  0.22836705     0.13500
C1381       C  0.85925420  0.56411386  0.20090780     0.02900
N1382       N  0.86160364  0.59427593  0.19315126    -0.80800
H1383       H  0.87088338  0.61113887  0.21487325     0.18400
C1384       C  0.84486406  0.56458115  0.19626689    -0.25600
C1385       C  0.83938237  0.55415043  0.18670071     0.36400
C1386       C  0.84850439  0.54295220  0.18177029    -0.19700
C1387       C  0.86301953  0.54274561  0.18616125    -0.24900
C1388       C  0.86847679  0.55320988  0.19571611     0.27800
H1389       H  0.83787390  0.57307614  0.20022364     0.13500
N1390       N  0.82464613  0.55497237  0.18188990    -0.82200
H1391       H  0.87004762  0.53420907  0.18237614     0.18400
N1392       N  0.88331528  0.55280003  0.20024218    -0.80800
H1393       H  0.82479829  0.55688043  0.17075931     0.34000
H1394       H  0.81941225  0.56378506  0.18659984     0.38500
H1395       H  0.88865228  0.54406532  0.19550656     0.34000
H1396       H  0.88833755  0.56213180  0.19636361     0.30700
H1397       H  0.86282468  0.60543749  0.19208519     0.34000
H1398       H  0.86895568  0.58953793  0.18602007     0.30700
H1399       H  0.88427864  0.56839478  0.24943050     0.38500
H1400       H  0.86694692  0.57137647  0.25427570     0.34000
C1401       C  0.90271592  0.59544821  0.24841342    -0.19700
C1402       C  0.90759518  0.58812095  0.26082353     0.36500
C1403       C  0.91763818  0.57687464  0.25934002    -0.25700
C1404       C  0.92277692  0.57273331  0.24569184     0.02900
C1405       C  0.91797349  0.58014127  0.23328637     0.27700
C1406       C  0.90799726  0.59143254  0.23479142    -0.24800
N1407       N  0.90198209  0.59183489  0.27479811    -0.82200
H1408       H  0.92124027  0.57106874  0.26883302     0.13500
C1409       C  0.93306637  0.56051306  0.24459334     0.02900
N1410       N  0.92327678  0.57618828  0.21924384    -0.80800
H1411       H  0.90426144  0.59716927  0.22531584     0.18400
C1412       C  0.92943917  0.54842050  0.23620497    -0.25600
C1413       C  0.93891330  0.53663280  0.23497265     0.36400
C1414       C  0.95208996  0.53682742  0.24265021    -0.19700
C1415       C  0.95559127  0.54882879  0.25118940    -0.24900
C1416       C  0.94634242  0.56078437  0.25203575     0.27800
H1417       H  0.91915833  0.54819239  0.23062297     0.13500
N1418       N  0.93495217  0.52431285  0.22640833    -0.82200
H1419       H  0.96578530  0.54902325  0.25693089     0.18400
N1420       N  0.95044908  0.57329219  0.26025402    -0.80800
H1421       H  0.92449852  0.52550908  0.22232290     0.34000
H1422       H  0.94179305  0.52402743  0.21744355     0.38500
H1423       H  0.96054367  0.57176490  0.26506627     0.34000
H1424       H  0.95159492  0.58188042  0.25302483     0.30700
H1425       H  0.91856948  0.58261623  0.21125306     0.34000
H1426       H  0.93435116  0.57836048  0.21904732     0.30700
H1427       H  0.89093758  0.58951911  0.27478589     0.38500
H1428       H  0.90664763  0.58540422  0.28280928     0.34000
C1429       C  0.89134448  0.39554491  0.27216638    -0.19700
C1430       C  0.88858425  0.39286202  0.28690439     0.36500
C1431       C  0.89972286  0.38744742  0.29564443    -0.25700
C1432       C  0.91340661  0.38473882  0.28982468     0.02900
C1433       C  0.91614195  0.38738847  0.27512252     0.27700
C1434       C  0.90502931  0.39268743  0.26640354    -0.24800
N1435       N  0.87455926  0.39568349  0.29290269    -0.82200
H1436       H  0.89774294  0.38521624  0.30696050     0.13500
C1437       C  0.92469017  0.37835312  0.29894763     0.02900
N1438       N  0.93015986  0.38450047  0.26912036    -0.80800
H1439       H  0.90699854  0.39438998  0.25500698     0.18400
C1440       C  0.92796175  0.36378703  0.29704870    -0.25600
C1441       C  0.93933282  0.35740155  0.30458736     0.36400
C1442       C  0.94777944  0.36579822  0.31417846    -0.19700
C1443       C  0.94414267  0.38037619  0.31636850    -0.24900
C1444       C  0.93266372  0.38675759  0.30876622     0.27800
H1445       H  0.92171710  0.35735567  0.28951564     0.13500
N1446       N  0.94214999  0.34235494  0.30246143    -0.82200
H1447       H  0.95043760  0.38689225  0.32376528     0.18400
N1448       N  0.92918383  0.40173121  0.31078643    -0.80800
H1449       H  0.93283521  0.33659396  0.30519615     0.34000
H1450       H  0.94422793  0.34066306  0.29149159     0.38500
H1451       H  0.93604361  0.40638686  0.31844902     0.34000
H1452       H  0.93115349  0.40705116  0.30102449     0.30700
H1453       H  0.93033334  0.38690361  0.25808775     0.34000
H1454       H  0.93749639  0.39151505  0.27406030     0.30700
H1455       H  0.87275528  0.40679542  0.29225107     0.38500
H1456       H  0.87432072  0.39300333  0.30386866     0.34000
C1457       C  0.86682324  0.42430914  0.23434051    -0.19700
C1458       C  0.86168538  0.42053664  0.22050203     0.36500
C1459       C  0.85892142  0.43148311  0.21040759    -0.25700
C1460       C  0.86125533  0.44597294  0.21398525     0.02900
C1461       C  0.86649815  0.44973343  0.22772223     0.27700
C1462       C  0.86915796  0.43883890  0.23782694    -0.24800
N1463       N  0.85922851  0.40567062  0.21681647    -0.82200
H1464       H  0.85468936  0.42877776  0.19983477     0.13500
C1465       C  0.85671209  0.45726252  0.20385383     0.02900
N1466       N  0.86870159  0.46463413  0.23142770    -0.80800
H1467       H  0.87273854  0.44173013  0.24857226     0.18400
C1468       C  0.84315805  0.46348943  0.20585323    -0.25600
C1469       C  0.83814746  0.47432758  0.19661447     0.36400
C1470       C  0.84714392  0.47926055  0.18521842    -0.19700
C1471       C  0.86085373  0.47294589  0.18336506    -0.24900
C1472       C  0.86570802  0.46194511  0.19258748     0.27800
H1473       H  0.83637614  0.45969998  0.21461065     0.13500
N1474       N  0.82393166  0.48016115  0.19879125    -0.82200
H1475       H  0.86781513  0.47654836  0.17468660     0.18400
N1476       N  0.87965161  0.45546091  0.19055547    -0.80800
H1477       H  0.81926060  0.47600039  0.20819162     0.34000
H1478       H  0.81747841  0.47657289  0.19024728     0.38500
H1479       H  0.88490340  0.46006419  0.18168525     0.34000
H1480       H  0.88591945  0.45787967  0.19962930     0.30700
H1481       H  0.87242880  0.46557517  0.24204603     0.34000
H1482       H  0.87690442  0.46862348  0.22477933     0.30700
H1483       H  0.86920760  0.40042155  0.21698095     0.38500
H1484       H  0.85528979  0.40478949  0.20626932     0.34000
C1485       C  0.89441960  0.42153572  0.25218645    -0.19700
C1486       C  0.90357984  0.42161141  0.23994890     0.36500
C1487       C  0.91493647  0.43161619  0.23924397    -0.25700
C1488       C  0.91741935  0.44143128  0.25049631     0.02900
C1489       C  0.90846568  0.44120123  0.26279614     0.27700
C1490       C  0.89712110  0.43114624  0.26356652    -0.24800
N1491       N  0.90173083  0.41169469  0.22815366    -0.82200
H1492       H  0.92183750  0.43179832  0.22979495     0.13500
C1493       C  0.92903912  0.45232505  0.24896873     0.02900
N1494       N  0.91066637  0.45146992  0.27421976    -0.80800
H1495       H  0.89004440  0.43101919  0.27287769     0.18400
C1496       C  0.92580532  0.46560126  0.24249857    -0.25600
C1497       C  0.93649152  0.47625315  0.24077159     0.36400
C1498       C  0.95066337  0.47353670  0.24561477    -0.19700
C1499       C  0.95387544  0.46029283  0.25222191    -0.24900
C1500       C  0.94319592  0.44957395  0.25383582     0.27800
H1501       H  0.91488607  0.46764622  0.23883181     0.13500
N1502       N  0.93298233  0.48991371  0.23433819    -0.82200
H1503       H  0.96478941  0.45823986  0.25589376     0.18400
N1504       N  0.94670716  0.43582817  0.26009957    -0.80800
H1505       H  0.92210830  0.49019567  0.23132771     0.34000
H1506       H  0.93433631  0.49782870  0.24227241     0.38500
H1507       H  0.95763629  0.43544471  0.26288706     0.34000
H1508       H  0.94090238  0.43481078  0.26972231     0.30700
H1509       H  0.90294416  0.45006601  0.28233484     0.34000
H1510       H  0.92068529  0.44931391  0.27892650     0.30700
H1511       H  0.89333903  0.40445904  0.23015179     0.38500
H1512       H  0.91110809  0.40546474  0.22747341     0.34000
C1513       C  0.74475496  0.62491876  0.06458020    -0.19700
C1514       C  0.74686562  0.63678859  0.05534301     0.36500
C1515       C  0.73555328  0.64124767  0.04633568    -0.25700
C1516       C  0.72209567  0.63427072  0.04665917     0.02900
C1517       C  0.72007098  0.62226568  0.05582039     0.27700
C1518       C  0.73154014  0.61756695  0.06454476    -0.24800
N1519       N  0.76047730  0.64424874  0.05518602    -0.82200
H1520       H  0.73718105  0.65028682  0.03909758     0.13500
C1521       C  0.71023278  0.63981908  0.03744669     0.02900
N1522       N  0.70628173  0.61517870  0.05652428    -0.80800
H1523       H  0.73000318  0.60850480  0.07177860     0.18400
C1524       C  0.70331051  0.63049229  0.02769621    -0.25600
C1525       C  0.69252125  0.63556561  0.01831307     0.36400
C1526       C  0.68864690  0.65027178  0.01872544    -0.19700
C1527       C  0.69545502  0.65953752  0.02858814    -0.24900
C1528       C  0.70609797  0.65445303  0.03805185     0.27800
H1529       H  0.70663305  0.61930359  0.02713275     0.13500
N1530       N  0.68590109  0.62597996  0.00805149    -0.82200
H1531       H  0.69243061  0.67082594  0.02891165     0.18400
N1532       N  0.71274149  0.66408527  0.04826289    -0.80800
H1533       H  0.68991047  0.61550886  0.00925480     0.34000
H1534       H  0.68891183  0.62940390  0.99772062     0.38500
H1535       H  0.70856694  0.67450794  0.04721284     0.34000
H1536       H  0.70998734  0.66052256  0.05861498     0.30700
H1537       H  0.70661553  0.60655116  0.06378712     0.34000
H1538       H  0.69884735  0.62258423  0.06066272     0.30700
H1539       H  0.76828968  0.63702869  0.05143751     0.38500
H1540       H  0.76022367  0.65281942  0.04785353     0.34000
C1541       C  0.77904551  0.59576914  0.09391567    -0.19700
C1542       C  0.77831884  0.59257613  0.10881033     0.36500
C1543       C  0.78682222  0.58143020  0.11441053    -0.25700
C1544       C  0.79591608  0.57341846  0.10542278     0.02900
C1545       C  0.79666294  0.57650508  0.09056616     0.27700
C1546       C  0.78815479  0.58770010  0.08490368    -0.24800
N1547       N  0.76884446  0.60057705  0.11815001    -0.82200
H1548       H  0.78629472  0.57886330  0.12582054     0.13500
C1549       C  0.80436494  0.56165951  0.11189919     0.02900
N1550       N  0.80610499  0.56832150  0.08138456    -0.80800
H1551       H  0.78882272  0.59031273  0.07352100     0.18400
C1552       C  0.79916742  0.54751445  0.11081756    -0.25600
C1553       C  0.80568860  0.53632924  0.11864632     0.36400
C1554       C  0.81770140  0.53944237  0.12743377    -0.19700
C1555       C  0.82332053  0.55345272  0.12797209    -0.24900
C1556       C  0.81662606  0.56469162  0.12036633     0.27800
H1557       H  0.78966290  0.54534926  0.10434099     0.13500
N1558       N  0.79997294  0.52192083  0.11806116    -0.82200
H1559       H  0.83245262  0.55574368  0.13492803     0.18400
N1560       N  0.82180921  0.57925366  0.12163644    -0.80800
H1561       H  0.79101179  0.52148587  0.11120542     0.34000
H1562       H  0.80786930  0.51534147  0.11343545     0.38500
H1563       H  0.83077746  0.57968899  0.12847921     0.34000
H1564       H  0.82536013  0.58250473  0.11142512     0.30700
H1565       H  0.80533929  0.57192227  0.07071150     0.34000
H1566       H  0.81669712  0.57034215  0.08472679     0.30700
H1567       H  0.75824463  0.59850073  0.11488582     0.38500
H1568       H  0.76970727  0.59693326  0.12880230     0.34000
C1569       C  0.75951534  0.59540308  0.06640196    -0.19700
C1570       C  0.75527589  0.58136632  0.07083033     0.36500
C1571       C  0.75460350  0.57023344  0.06053981    -0.25700
C1572       C  0.75712171  0.57297614  0.04586476     0.02900
C1573       C  0.76069645  0.58701172  0.04135027     0.27700
C1574       C  0.76207954  0.59800364  0.05167738    -0.24800
N1575       N  0.75119737  0.57811422  0.08545231    -0.82200
H1576       H  0.75159633  0.55945683  0.06394265     0.13500
C1577       C  0.75556002  0.56119514  0.03517712     0.02900
N1578       N  0.76281842  0.59003433  0.02627174    -0.80800
H1579       H  0.76526794  0.60870805  0.04825789     0.18400
C1580       C  0.74262532  0.55989235  0.02745875    -0.25600
C1581       C  0.74079890  0.54909712  0.01691813     0.36400
C1582       C  0.75232728  0.53952585  0.01388628    -0.19700
C1583       C  0.76531756  0.54098328  0.02165974    -0.24900
C1584       C  0.76702815  0.55169236  0.03228564     0.27800
H1585       H  0.73391301  0.56735858  0.02970107     0.13500
N1586       N  0.72745114  0.54816960  0.00905230    -0.82200
H1587       H  0.77418138  0.53368019  0.01949405     0.18400
N1588       N  0.78034657  0.55297663  0.04015850    -0.80800
H1589       H  0.72068505  0.55679388  0.01170785     0.34000
H1590       H  0.72210608  0.53887510  0.01255417     0.38500
H1591       H  0.78767732  0.54507536  0.03683814     0.34000
H1592       H  0.78495374  0.56293313  0.03752526     0.30700
H1593       H  0.76511788  0.60096734  0.02471054     0.34000
H1594       H  0.77191581  0.58430557  0.02286474     0.30700
H1595       H  0.75041731  0.58751143  0.09158216     0.38500
H1596       H  0.74071988  0.57392223  0.08520307     0.34000
C1597       C  0.70151606  0.35286527  0.01649039    -0.19700
C1598       C  0.70580551  0.34803904  0.03025463     0.36500
C1599       C  0.71295363  0.35754670  0.03955134    -0.25700
C1600       C  0.71589104  0.37172880  0.03532019     0.02900
C1601       C  0.71129665  0.37674884  0.02171805     0.27700
C1602       C  0.70396651  0.36723106  0.01239820    -0.24800
N1603       N  0.70292505  0.33345290  0.03466769    -0.82200
H1604       H  0.71650835  0.35383632  0.05006867     0.13500
C1605       C  0.72448325  0.38071251  0.04521579     0.02900
N1606       N  0.71451132  0.39125681  0.01729901    -0.80800
H1607       H  0.70066484  0.37082491  0.00176338     0.18400
C1608       C  0.73955738  0.37988265  0.04444160    -0.25600
C1609       C  0.74815920  0.38576761  0.05534074     0.36400
C1610       C  0.74158025  0.39280715  0.06713724    -0.19700
C1611       C  0.72651546  0.39392111  0.06774936    -0.24900
C1612       C  0.71785817  0.38796075  0.05681282     0.27800
H1613       H  0.74461465  0.37396569  0.03570414     0.13500
N1614       N  0.76346589  0.38374999  0.05458907    -0.82200
H1615       H  0.72151464  0.39907708  0.07697789     0.18400
N1616       N  0.70238804  0.38861431  0.05773543    -0.80800
H1617       H  0.76841927  0.39385938  0.05457207     0.34000
H1618       H  0.76679233  0.37817855  0.06382231     0.38500
H1619       H  0.69923036  0.39412221  0.06706869     0.34000
H1620       H  0.69870759  0.39471658  0.04899150     0.30700
H1621       H  0.71057004  0.39315857  0.00688985     0.34000
H1622       H  0.70895097  0.39824431  0.02418551     0.30700
H1623       H  0.69171666  0.33223157  0.03523890     0.38500
H1624       H  0.70690539  0.33157305  0.04506468     0.34000
C1625       C  0.77559582  0.42180029  0.09719770    -0.19700
C1626       C  0.78870892  0.41806123  0.10408196     0.36500
C1627       C  0.79748369  0.42894677  0.10993635    -0.25700
C1628       C  0.79360159  0.44347966  0.10880744     0.02900
C1629       C  0.78085585  0.44733115  0.10147103     0.27700
C1630       C  0.77192439  0.43644092  0.09580011    -0.24800
N1631       N  0.79302601  0.40321186  0.10520894    -0.82200
H1632       H  0.80727966  0.42609933  0.11566096     0.13500
C1633       C  0.80206022  0.45437768  0.11684128     0.02900
N1634       N  0.77683908  0.46225424  0.10020773    -0.80800
H1635       H  0.76176800  0.43942474  0.09089374     0.18400
C1636       C  0.81138508  0.46377629  0.10948819    -0.25600
C1637       C  0.81887271  0.47473306  0.11695000     0.36400
C1638       C  0.81673860  0.47632810  0.13198195    -0.19700
C1639       C  0.80776544  0.46654995  0.13930069    -0.24900
C1640       C  0.80044910  0.45557858  0.13190304     0.27800
H1641       H  0.81263652  0.46267064  0.09790593     0.13500
N1642       N  0.82829536  0.48438615  0.10928628    -0.82200
H1643       H  0.80629961  0.46760225  0.15086671     0.18400
N1644       N  0.79120449  0.44574719  0.13957998    -0.80800
H1645       H  0.82872475  0.48164154  0.09834078     0.34000
H1646       H  0.82380487  0.49470517  0.10982989     0.38500
H1647       H  0.79135300  0.44796024  0.15065167     0.34000
H1648       H  0.78062775  0.44753229  0.13607203     0.30700
H1649       H  0.76723020  0.46328321  0.09437402     0.34000
H1650       H  0.77475289  0.46614143  0.11059973     0.30700
H1651       H  0.79479626  0.39938047  0.09473854     0.38500
H1652       H  0.80284272  0.40230803  0.11070678     0.34000
C1653       C  0.75736890  0.42142307  0.06885961    -0.19700
C1654       C  0.74486334  0.42979014  0.06712622     0.36500
C1655       C  0.74426450  0.44021269  0.05622608    -0.25700
C1656       C  0.75597143  0.44233422  0.04685692     0.02900
C1657       C  0.76860968  0.43397098  0.04863409     0.27700
C1658       C  0.76925106  0.42371870  0.05981637    -0.24800
N1659       N  0.73292286  0.42797894  0.07676151    -0.82200
H1660       H  0.73466026  0.44679527  0.05517497     0.13500
C1661       C  0.75495827  0.45372642  0.03563862     0.02900
N1662       N  0.78062417  0.43581151  0.03898841    -0.80800
H1663       H  0.77888717  0.41729435  0.06134999     0.18400
C1664       C  0.76535846  0.46472618  0.03534040    -0.25600
C1665       C  0.76450587  0.47603496  0.02528810     0.36400
C1666       C  0.75292327  0.47638758  0.01537382    -0.19700
C1667       C  0.74242938  0.46546067  0.01577663    -0.24900
C1668       C  0.74341381  0.45403433  0.02568885     0.27800
H1669       H  0.77405446  0.46460918  0.04316689     0.13500
N1670       N  0.77520605  0.48727791  0.02529825    -0.82200
H1671       H  0.73362913  0.46563344  0.00806707     0.18400
N1672       N  0.73285112  0.44265771  0.02558977    -0.80800
H1673       H  0.77005016  0.49688080  0.02819753     0.34000
H1674       H  0.78304301  0.48532730  0.03318620     0.38500
H1675       H  0.72505595  0.44451891  0.01763880     0.34000
H1676       H  0.73814483  0.43311613  0.02274295     0.30700
H1677       H  0.78905046  0.42885731  0.04179210     0.34000
H1678       H  0.77720564  0.43276750  0.02866566     0.30700
H1679       H  0.73113927  0.43781153  0.08199371     0.38500
H1680       H  0.72377270  0.42564847  0.07057513     0.34000
C1681       C  0.72909409  0.62096139  0.90177040    -0.19700
C1682       C  0.71487082  0.62562753  0.89906437     0.36500
C1683       C  0.70623648  0.62997793  0.91067669    -0.25700
C1684       C  0.71157483  0.62971605  0.92481832     0.02900
C1685       C  0.72567592  0.62462872  0.92758596     0.27700
C1686       C  0.73426770  0.62034276  0.91597499    -0.24800
N1687       N  0.70938159  0.62622976  0.88454676    -0.82200
H1688       H  0.69542198  0.63397275  0.90869429     0.13500
C1689       C  0.70269399  0.63625099  0.93616762     0.02900
N1690       N  0.73176347  0.62403436  0.94186931    -0.80800
H1691       H  0.74530175  0.61717355  0.91805999     0.18400
C1692       C  0.69437152  0.62741899  0.94511683    -0.25600
C1693       C  0.68540814  0.63343430  0.95573521     0.36400
C1694       C  0.68491077  0.64863589  0.95734952    -0.19700
C1695       C  0.69343107  0.65737581  0.94834357    -0.24900
C1696       C  0.70234016  0.65131278  0.93776955     0.27800
H1697       H  0.69483394  0.61581945  0.94372635     0.13500
N1698       N  0.67717032  0.62413226  0.96503810    -0.82200
H1699       H  0.69311485  0.66900062  0.94951105     0.18400
N1700       N  0.71097706  0.66034418  0.92855421    -0.80800
H1701       H  0.67989475  0.61333168  0.96326874     0.34000
H1702       H  0.66633634  0.62510555  0.96204585     0.38500
H1703       H  0.70935984  0.67122897  0.93102556     0.34000
H1704       H  0.72181666  0.65812587  0.93077088     0.30700
H1705       H  0.74040882  0.63128219  0.94221271     0.34000
H1706       H  0.72443299  0.62736096  0.94974023     0.30700
H1707       H  0.70896856  0.61569412  0.88056064     0.38500
H1708       H  0.69878639  0.63010432  0.88446025     0.34000
C1709       C  0.76337026  0.59540243  0.86955026    -0.19700
C1710       C  0.76071128  0.59075836  0.85530400     0.36500
C1711       C  0.76961164  0.58021721  0.84920867    -0.25700
C1712       C  0.78070334  0.57381103  0.85726267     0.02900
C1713       C  0.78336183  0.57842869  0.87152454     0.27700
C1714       C  0.77482858  0.58943919  0.87741377    -0.24800
N1715       N  0.74888058  0.59663869  0.84715674    -0.82200
H1716       H  0.76775541  0.57678795  0.83817256     0.13500
C1717       C  0.78920927  0.56214178  0.85054236     0.02900
N1718       N  0.79457812  0.57183712  0.87998092    -0.80800
H1719       H  0.77723107  0.59343814  0.88810180     0.18400
C1720       C  0.80430684  0.56329407  0.84983595    -0.25600
C1721       C  0.81256401  0.55268593  0.84286597     0.36400
C1722       C  0.80546258  0.54098426  0.83623971    -0.19700
C1723       C  0.79040769  0.53981950  0.83701708    -0.24900
C1724       C  0.78221629  0.55012351  0.84435400     0.27800
H1725       H  0.80961535  0.57260415  0.85451854     0.13500
N1726       N  0.82802412  0.55387892  0.84225425    -0.82200
H1727       H  0.78504476  0.53061361  0.83217267     0.18400
N1728       N  0.76683990  0.54839317  0.84566767    -0.80800
H1729       H  0.83151750  0.56308827  0.84776582     0.34000
H1730       H  0.83092300  0.55527752  0.83143154     0.38500
H1731       H  0.76340666  0.53898418  0.84046684     0.34000
H1732       H  0.76448466  0.54707930  0.85663277     0.30700
H1733       H  0.79511222  0.57652236  0.89024040     0.34000
H1734       H  0.79175373  0.56102567  0.88153004     0.30700
H1735       H  0.73932889  0.59363414  0.85237190     0.38500
H1736       H  0.74848030  0.59209974  0.83682638     0.34000
C1737       C  0.74675026  0.59334059  0.89831046    -0.19700
C1738       C  0.73567635  0.58294241  0.89757802     0.36500
C1739       C  0.73541516  0.57158264  0.90767214    -0.25700
C1740       C  0.74602217  0.57054027  0.91843866     0.02900
C1741       C  0.75705637  0.58098735  0.91918242     0.27700
C1742       C  0.75729962  0.59228276  0.90909383    -0.24800
N1743       N  0.72484746  0.58393677  0.88653079    -0.82200
H1744       H  0.72695092  0.56352487  0.90717345     0.13500
C1745       C  0.74556531  0.55851979  0.92897343     0.02900
N1746       N  0.76784986  0.58015012  0.93030573    -0.80800
H1747       H  0.76556407  0.60052259  0.90977880     0.18400
C1748       C  0.75629401  0.54789425  0.92842712    -0.25600
C1749       C  0.75695651  0.53697998  0.93889176     0.36400
C1750       C  0.74678950  0.53669931  0.95023412    -0.19700
C1751       C  0.73568511  0.54703008  0.95043135    -0.24900
C1752       C  0.73504130  0.55802406  0.93995907     0.27800
H1753       H  0.76429406  0.54816950  0.91988971     0.13500
N1754       N  0.76784568  0.52607407  0.93781932    -0.82200
H1755       H  0.72778735  0.54683023  0.95905907     0.18400
N1756       N  0.72397662  0.56886837  0.94061104    -0.80800
H1757       H  0.76664736  0.52089062  0.92785942     0.34000
H1758       H  0.77792903  0.53114511  0.93792562     0.38500
H1759       H  0.71705893  0.56694781  0.94932319     0.34000
H1760       H  0.72900998  0.57876919  0.94261446     0.30700
H1761       H  0.77525039  0.58860996  0.92929611     0.34000
H1762       H  0.76265183  0.58157123  0.94022800     0.30700
H1763       H  0.71877673  0.59319414  0.88858936     0.38500
H1764       H  0.71769091  0.57524057  0.88723492     0.34000
C1765       C  0.70309915  0.34386879  0.95469237    -0.19700
C1766       C  0.71512994  0.33854446  0.94696229     0.36500
C1767       C  0.72163475  0.34730256  0.93644903    -0.25700
C1768       C  0.71621052  0.36106342  0.93343970     0.02900
C1769       C  0.70408610  0.36629286  0.94085564     0.27700
C1770       C  0.69760633  0.35762539  0.95138760    -0.24800
N1771       N  0.72061976  0.32430436  0.94969024    -0.82200
H1772       H  0.73091030  0.34338908  0.93049298     0.13500
C1773       C  0.72330319  0.36991827  0.92238797     0.02900
N1774       N  0.69853524  0.38043674  0.93773549    -0.80800
H1775       H  0.68842481  0.36182041  0.95728574     0.18400
C1776       C  0.71666824  0.37143934  0.90890399    -0.25600
C1777       C  0.72327913  0.37949969  0.89796449     0.36400
C1778       C  0.73671655  0.38609783  0.90069794    -0.19700
C1779       C  0.74317077  0.38487134  0.91432661    -0.24900
C1780       C  0.73654013  0.37679397  0.92526718     0.27800
H1781       H  0.70639464  0.36620241  0.90691166     0.13500
N1782       N  0.71646032  0.38101187  0.88409505    -0.82200
H1783       H  0.75354695  0.38990324  0.91629534     0.18400
N1784       N  0.74320860  0.37536879  0.93921204    -0.80800
H1785       H  0.70665311  0.37543126  0.88385616     0.34000
H1786       H  0.71399939  0.39192448  0.88267543     0.38500
H1787       H  0.75298451  0.38100611  0.93951355     0.34000
H1788       H  0.73642080  0.38028499  0.94676810     0.30700
H1789       H  0.68948608  0.38263976  0.94411053     0.34000
H1790       H  0.70644619  0.38793804  0.94066294     0.30700
H1791       H  0.71262767  0.31694665  0.94661725     0.38500
H1792       H  0.72959858  0.32219039  0.94318553     0.34000
C1793       C  0.76416439  0.42256467  0.87279071    -0.19700
C1794       C  0.77839490  0.42236947  0.86759547     0.36500
C1795       C  0.78469925  0.43514615  0.86277811    -0.25700
C1796       C  0.77704902  0.44817334  0.86321545     0.02900
C1797       C  0.76288814  0.44851119  0.86874506     0.27700
C1798       C  0.75652559  0.43560932  0.87346708    -0.24800
N1799       N  0.78650609  0.40922498  0.86732890    -0.82200
H1800       H  0.79556278  0.43485677  0.85843645     0.13500
C1801       C  0.78392725  0.46103551  0.85695097     0.02900
N1802       N  0.75506144  0.46187419  0.86941249    -0.80800
H1803       H  0.74552617  0.43566605  0.87744125     0.18400
C1804       C  0.77768422  0.46749558  0.84480478    -0.25600
C1805       C  0.78525364  0.47788090  0.83681626     0.36400
C1806       C  0.79954757  0.48148285  0.84092459    -0.19700
C1807       C  0.80525515  0.47574725  0.85375998    -0.24900
C1808       C  0.79753642  0.46562223  0.86185842     0.27800
H1809       H  0.76712168  0.46397217  0.84120537     0.13500
N1810       N  0.77857240  0.48446944  0.82444778    -0.82200
H1811       H  0.81599142  0.47876382  0.85727701     0.18400
N1812       N  0.80363591  0.45955430  0.87477969    -0.80800
H1813       H  0.76822342  0.48028076  0.82277205     0.34000
H1814       H  0.77722769  0.49542131  0.82679447     0.38500
H1815       H  0.81380444  0.46398803  0.87685766     0.34000
H1816       H  0.79698610  0.46252283  0.88340640     0.30700
H1817       H  0.74476852  0.46021345  0.87373577     0.34000
H1818       H  0.76052562  0.46865680  0.87659714     0.30700
H1819       H  0.78970437  0.40728887  0.85667558     0.38500
H1820       H  0.79580538  0.41072063  0.87355419     0.34000
C1821       C  0.74945242  0.41703176  0.90173627    -0.19700
C1822       C  0.73611330  0.42181213  0.90725600     0.36500
C1823       C  0.73589338  0.43234611  0.91819330    -0.25700
C1824       C  0.74872257  0.43867853  0.92327075     0.02900
C1825       C  0.76208514  0.43386943  0.91768509     0.27700
C1826       C  0.76228639  0.42293231  0.90718396    -0.24800
N1827       N  0.72286090  0.41628357  0.90140463    -0.82200
H1828       H  0.72564024  0.43587557  0.92256103     0.13500
C1829       C  0.74802304  0.45054438  0.93414398     0.02900
N1830       N  0.77537512  0.44036821  0.92239811    -0.80800
H1831       H  0.77249648  0.41924551  0.90285038     0.18400
C1832       C  0.75650541  0.44969077  0.94669668    -0.25600
C1833       C  0.75680635  0.46102106  0.95677461     0.36400
C1834       C  0.74809489  0.47327552  0.95449095    -0.19700
C1835       C  0.73914787  0.47392687  0.94231203    -0.24900
C1836       C  0.73926218  0.46284556  0.93192590     0.27800
H1837       H  0.76301420  0.44017235  0.94858176     0.13500
N1838       N  0.76586627  0.46011690  0.96935735    -0.82200
H1839       H  0.73251806  0.48340010  0.94060123     0.18400
N1840       N  0.73086066  0.46424361  0.91894544    -0.80800
H1841       H  0.77169131  0.45046199  0.96936899     0.34000
H1842       H  0.75914104  0.45985208  0.97842371     0.38500
H1843       H  0.72504214  0.47390371  0.91899643     0.34000
H1844       H  0.73805399  0.46485362  0.91026588     0.30700
H1845       H  0.78420407  0.43555841  0.91727692     0.34000
H1846       H  0.77524656  0.45115930  0.91912256     0.30700
H1847       H  0.71398417  0.42093409  0.90658654     0.38500
H1848       H  0.72232944  0.41943928  0.89057795     0.34000
C1849       C  0.04944488  0.63153049  0.68965366    -0.19700
C1850       C  0.06161038  0.62425731  0.68408124     0.36500
C1851       C  0.07049646  0.61633535  0.69354721    -0.25700
C1852       C  0.06714491  0.61509479  0.70831110     0.02900
C1853       C  0.05436848  0.62149447  0.71358650     0.27700
C1854       C  0.04586226  0.62986618  0.70428902    -0.24800
N1855       N  0.06534078  0.62554496  0.66907250    -0.82200
H1856       H  0.08032599  0.61149995  0.68947401     0.13500
C1857       C  0.07762750  0.60820022  0.71836971     0.02900
N1858       N  0.05017708  0.61959896  0.72842371    -0.80800
H1859       H  0.03633286  0.63516631  0.70851139     0.18400
C1860       C  0.08198869  0.61585698  0.73072213    -0.25600
C1861       C  0.09191556  0.61000968  0.74047284     0.36400
C1862       C  0.09813696  0.59648156  0.73765331    -0.19700
C1863       C  0.09394367  0.58879485  0.72527418    -0.24900
C1864       C  0.08355561  0.59440527  0.71571018     0.27800
H1865       H  0.07765925  0.62650140  0.73284658     0.13500
N1866       N  0.09538500  0.61769836  0.75343879    -0.82200
H1867       H  0.09876374  0.57837990  0.72308332     0.18400
N1868       N  0.07892989  0.58611937  0.70342909    -0.80800
H1869       H  0.09949366  0.62779781  0.75054173     0.34000
H1870       H  0.08582621  0.61932673  0.75921361     0.38500
H1871       H  0.08436601  0.57624544  0.70303689     0.34000
H1872       H  0.06799545  0.58372325  0.70486494     0.30700
H1873       H  0.04056337  0.62508558  0.73059892     0.34000
H1874       H  0.04806135  0.60863086  0.72998851     0.30700
H1875       H  0.05740648  0.62014393  0.66313559     0.38500
H1876       H  0.07503392  0.62018311  0.66693768     0.34000
C1877       C  0.12467790  0.56261003  0.77008308    -0.19700
C1878       C  0.11527480  0.55586286  0.77999898     0.36500
C1879       C  0.12008374  0.54370469  0.78768723    -0.25700
C1880       C  0.13420883  0.53853437  0.78596578     0.02900
C1881       C  0.14370472  0.54554454  0.77636181     0.27700
C1882       C  0.13879247  0.55743898  0.76843729    -0.24800
N1883       N  0.10109803  0.56160140  0.78253814    -0.82200
H1884       H  0.11290033  0.53836541  0.79522124     0.13500
C1885       C  0.13921746  0.52607356  0.79459375     0.02900
N1886       N  0.15836962  0.54068432  0.77489388    -0.80800
H1887       H  0.14604111  0.56278432  0.76096766     0.18400
C1888       C  0.14428495  0.51374819  0.78743668    -0.25600
C1889       C  0.15045845  0.50232034  0.79515083     0.36400
C1890       C  0.15150709  0.50315149  0.81031414    -0.19700
C1891       C  0.14578457  0.51517974  0.81752554    -0.24900
C1892       C  0.13980209  0.52675535  0.80979807     0.27800
H1893       H  0.14366911  0.51311931  0.77576255     0.13500
N1894       N  0.15550147  0.48983978  0.78755638    -0.82200
H1895       H  0.14651777  0.51581849  0.82918821     0.18400
N1896       N  0.13474872  0.53937216  0.81727432    -0.80800
H1897       H  0.14682040  0.48546806  0.78181089     0.34000
H1898       H  0.16329565  0.49316957  0.78010011     0.38500
H1899       H  0.13591049  0.53812302  0.82843623     0.34000
H1900       H  0.14139170  0.54799454  0.81429075     0.30700
H1901       H  0.16392620  0.54698788  0.76735842     0.34000
H1902       H  0.16350092  0.54226426  0.78482963     0.30700
H1903       H  0.10232956  0.57188591  0.78700603     0.38500
H1904       H  0.09558514  0.55538235  0.79017614     0.34000
C1905       C  0.09750810  0.56618230  0.75070176    -0.19700
C1906       C  0.10071827  0.55237776  0.74519052     0.36500
C1907       C  0.08951112  0.54231302  0.74335605    -0.25700
C1908       C  0.07519661  0.54598747  0.74662693     0.02900
C1909       C  0.07192382  0.56001756  0.75147602     0.27700
C1910       C  0.08314973  0.56990819  0.75365817    -0.24800
N1911       N  0.11530301  0.54871209  0.74144340    -0.82200
H1912       H  0.09193151  0.53153424  0.73953720     0.13500
C1913       C  0.06377185  0.53487569  0.74576971     0.02900
N1914       N  0.05720412  0.56410531  0.75418682    -0.80800
H1915       H  0.08076285  0.58058888  0.75774805     0.18400
C1916       C  0.05657403  0.53095931  0.75846120    -0.25600
C1917       C  0.04519218  0.52098001  0.75827436     0.36400
C1918       C  0.04112353  0.51444938  0.74502802    -0.19700
C1919       C  0.04864001  0.51823038  0.73234590    -0.24900
C1920       C  0.05983222  0.52847100  0.73257027     0.27800
H1921       H  0.05972245  0.53595993  0.76856724     0.13500
N1922       N  0.03768976  0.51772328  0.77147441    -0.82200
H1923       H  0.04565101  0.51335974  0.72214018     0.18400
N1924       N  0.06704601  0.53257128  0.71944908    -0.80800
H1925       H  0.04256934  0.52288594  0.78025314     0.34000
H1926       H  0.02732691  0.52210267  0.77062646     0.38500
H1927       H  0.06288026  0.52682991  0.71066378     0.34000
H1928       H  0.06476603  0.54345215  0.71755441     0.30700
H1929       H  0.05665705  0.57480242  0.75772478     0.34000
H1930       H  0.05169666  0.56367892  0.74433701     0.30700
H1931       H  0.11846085  0.55547604  0.73297957     0.38500
H1932       H  0.11584290  0.53814687  0.73753031     0.34000
C1933       C  0.02464803  0.33904697  0.68754056    -0.19700
C1934       C  0.03068440  0.33172312  0.69956128     0.36500
C1935       C  0.04218925  0.33800614  0.70714800    -0.25700
C1936       C  0.04794548  0.35136329  0.70307008     0.02900
C1937       C  0.04217155  0.35861921  0.69100474     0.27700
C1938       C  0.03062454  0.35237184  0.68333798    -0.24800
N1939       N  0.02529478  0.31786433  0.70400711    -0.82200
H1940       H  0.04686030  0.33234483  0.71625769     0.13500
C1941       C  0.06008760  0.35744211  0.71160678     0.02900
N1942       N  0.04794068  0.37236289  0.68670458    -0.80800
H1943       H  0.02616609  0.35805684  0.67414599     0.18400
C1944       C  0.07333925  0.36028252  0.70482288    -0.25600
C1945       C  0.08529337  0.36523771  0.71278495     0.36400
C1946       C  0.08388672  0.36745413  0.72779930    -0.19700
C1947       C  0.07071464  0.36441980  0.73457016    -0.24900
C1948       C  0.05875609  0.35957959  0.72663804     0.27800
H1949       H  0.07441547  0.35836552  0.69332944     0.13500
N1950       N  0.09886789  0.36783953  0.70572910    -0.82200
H1951       H  0.06984650  0.36545168  0.74616351     0.18400
N1952       N  0.04528592  0.35669629  0.73379518    -0.80800
H1953       H  0.09813443  0.36546113  0.69471360     0.34000
H1954       H  0.10108478  0.37885998  0.70649086     0.38500
H1955       H  0.04615232  0.35868140  0.74487888     0.34000
H1956       H  0.03767490  0.36398976  0.72978734     0.30700
H1957       H  0.04254675  0.37625186  0.67758450     0.34000
H1958       H  0.04590387  0.37967798  0.69505412     0.30700
H1959       H  0.02793569  0.31046389  0.69590509     0.38500
H1960       H  0.03051151  0.31432922  0.71337343     0.34000
C1961       C  0.11402245  0.39544702  0.76245408    -0.19700
C1962       C  0.12672590  0.40349082  0.76022259     0.36500
C1963       C  0.13170103  0.41267462  0.77118004    -0.25700
C1964       C  0.12431797  0.41387453  0.78436469     0.02900
C1965       C  0.11125619  0.40632723  0.78636574     0.27700
C1966       C  0.10617495  0.39722338  0.77530405    -0.24800
N1967       N  0.13458486  0.40218744  0.74689928    -0.82200
H1968       H  0.14158908  0.41872475  0.76958316     0.13500
C1969       C  0.13103953  0.42249670  0.79607300     0.02900
N1970       N  0.10349116  0.40757336  0.79974271    -0.80800
H1971       H  0.09642532  0.39098694  0.77697200     0.18400
C1972       C  0.12404953  0.43478468  0.80152824    -0.25600
C1973       C  0.13130655  0.44434746  0.81089012     0.36400
C1974       C  0.14574846  0.44143938  0.81477245    -0.19700
C1975       C  0.15232623  0.42868101  0.81004783    -0.24900
C1976       C  0.14506795  0.41909687  0.80088380     0.27800
H1977       H  0.11322885  0.43729865  0.79787669     0.13500
N1978       N  0.12436486  0.45731028  0.81581244    -0.82200
H1979       H  0.16335425  0.42639436  0.81321786     0.18400
N1980       N  0.15201569  0.40609016  0.79607020    -0.80800
H1981       H  0.11374784  0.45778094  0.81201155     0.34000
H1982       H  0.12981903  0.46607000  0.81123812     0.38500
H1983       H  0.16236300  0.40523536  0.80049703     0.34000
H1984       H  0.14605371  0.39738321  0.80006883     0.30700
H1985       H  0.09408641  0.40133649  0.79944665     0.34000
H1986       H  0.10998815  0.40325326  0.80789678     0.30700
H1987       H  0.12797352  0.40608406  0.73863154     0.38500
H1988       H  0.14376485  0.40875526  0.74704414     0.34000
C1989       C  0.08547414  0.39506714  0.74606833    -0.19700
C1990       C  0.08729368  0.40735354  0.73733735     0.36500
C1991       C  0.07690741  0.41835310  0.73771888    -0.25700
C1992       C  0.06467385  0.41714162  0.74652747     0.02900
C1993       C  0.06276628  0.40477378  0.75520048     0.27700
C1994       C  0.07339214  0.39395324  0.75509053    -0.24800
N1995       N  0.09977191  0.40859222  0.72822146    -0.82200
H1996       H  0.07825399  0.42785480  0.73103569     0.13500
C1997       C  0.05382514  0.42881510  0.74617192     0.02900
N1998       N  0.04985203  0.40301330  0.76363133    -0.80800
H1999       H  0.07225554  0.38459855  0.76198825     0.18400
C2000       C  0.04389564  0.42924773  0.73476003    -0.25600
C2001       C  0.03385206  0.44055985  0.73357236     0.36400
C2002       C  0.03369130  0.45155956  0.74414360    -0.19700
C2003       C  0.04363818  0.45102669  0.75559381    -0.24900
C2004       C  0.05391138  0.43991946  0.75655349     0.27800
H2005       H  0.04409376  0.42077626  0.72669332     0.13500
N2006       N  0.02380627  0.44086430  0.72174192    -0.82200
H2007       H  0.04372354  0.45960191  0.76354798     0.18400
N2008       N  0.06488084  0.44028511  0.76754679    -0.80800
H2009       H  0.02549718  0.43208976  0.71485004     0.34000
H2010       H  0.01344053  0.43964143  0.72603824     0.38500
H2011       H  0.06373427  0.44947231  0.77399543     0.34000
H2012       H  0.06337524  0.43143453  0.77434617     0.30700
H2013       H  0.04995878  0.39308827  0.76899295     0.34000
H2014       H  0.04975591  0.41093906  0.77163636     0.30700
H2015       H  0.09913662  0.40044708  0.72045690     0.38500
H2016       H  0.09963288  0.41837918  0.72261510     0.34000
C2017       C  0.92737028  0.60108096  0.71269524    -0.19700
C2018       C  0.93104514  0.61553103  0.71573445     0.36500
C2019       C  0.94341339  0.62152341  0.70945554    -0.25700
C2020       C  0.95218207  0.61335138  0.70027211     0.02900
C2021       C  0.94874903  0.59879817  0.69746979     0.27700
C2022       C  0.93635955  0.59273158  0.70383194    -0.24800
N2023       N  0.92213583  0.62406542  0.72514872    -0.82200
H2024       H  0.94621910  0.63266545  0.71164093     0.13500
C2025       C  0.96476581  0.62046559  0.69355801     0.02900
N2026       N  0.95762457  0.59041887  0.68790505    -0.80800
H2027       H  0.93340087  0.58167598  0.70143884     0.18400
C2028       C  0.97871724  0.61674645  0.69808913    -0.25600
C2029       C  0.99080354  0.62436667  0.69297029     0.36400
C2030       C  0.98877241  0.63567244  0.68301505    -0.19700
C2031       C  0.97488235  0.63918204  0.67825806    -0.24900
C2032       C  0.96280177  0.63170139  0.68348612     0.27800
H2033       H  0.98010716  0.60816590  0.70591246     0.13500
N2034       N  0.00508806  0.62069742  0.69778581    -0.82200
H2035       H  0.97347992  0.64785928  0.67053907     0.18400
N2036       N  0.94852720  0.63552723  0.67876003    -0.80800
H2037       H  0.00471052  0.61201906  0.70498803     0.34000
H2038       H  0.00911240  0.62950007  0.70358819     0.38500
H2039       H  0.94894669  0.64410754  0.67144256     0.34000
H2040       H  0.94430287  0.62669835  0.67314121     0.30700
H2041       H  0.95359940  0.57991831  0.68698916     0.34000
H2042       H  0.95690321  0.59504984  0.67763332     0.30700
H2043       H  0.92257282  0.61940455  0.73542106     0.38500
H2044       H  0.92627645  0.63451262  0.72616134     0.34000
C2045       C  0.89076519  0.57259724  0.73944000    -0.19700
C2046       C  0.87805383  0.56497845  0.73606644     0.36500
C2047       C  0.87087198  0.55743067  0.74700855    -0.25700
C2048       C  0.87598663  0.55768747  0.76125591     0.02900
C2049       C  0.88878471  0.56518472  0.76461737     0.27700
C2050       C  0.89619983  0.57242321  0.75357347    -0.24800
N2051       N  0.87238416  0.56516682  0.72161186    -0.82200
H2052       H  0.86110863  0.55148874  0.74449425     0.13500
C2053       C  0.86764668  0.55010305  0.77248397     0.02900
N2054       N  0.89388293  0.56580621  0.77927119    -0.80800
H2055       H  0.90581430  0.57858031  0.75613103     0.18400
C2056       C  0.87412559  0.53876890  0.78011263    -0.25600
C2057       C  0.86607254  0.53038980  0.78980840     0.36400
C2058       C  0.85131896  0.53353153  0.79182693    -0.19700
C2059       C  0.84496781  0.54512411  0.78451898    -0.24900
C2060       C  0.85304592  0.55357669  0.77496143     0.27800
H2061       H  0.88533968  0.53614291  0.77808165     0.13500
N2062       N  0.87263722  0.51838740  0.79712909    -0.82200
H2063       H  0.83365543  0.54754686  0.78625858     0.18400
N2064       N  0.84649785  0.56558664  0.76764709    -0.80800
H2065       H  0.88357533  0.51761640  0.79446011     0.34000
H2066       H  0.86772162  0.50896382  0.79332579     0.38500
H2067       H  0.83566077  0.56662153  0.77062516     0.34000
H2068       H  0.85172756  0.57495192  0.77115364     0.30700
H2069       H  0.90341276  0.57182259  0.77990069     0.34000
H2070       H  0.88615668  0.57135210  0.78534543     0.30700
H2071       H  0.87985184  0.56001517  0.71491717     0.38500
H2072       H  0.86283753  0.55917117  0.72100850     0.34000
C2073       C  0.92260792  0.57263168  0.72973471    -0.19700
C2074       C  0.92121801  0.55806830  0.72551708     0.36500
C2075       C  0.93218356  0.54820371  0.72898003    -0.25700
C2076       C  0.94458725  0.55267614  0.73637581     0.02900
C2077       C  0.94589767  0.56713596  0.74087455     0.27700
C2078       C  0.93487332  0.57701958  0.73747750    -0.24800
N2079       N  0.90886222  0.55348403  0.71734459    -0.82200
H2080       H  0.93128870  0.53706997  0.72551879     0.13500
C2081       C  0.95647890  0.54223442  0.73847915     0.02900
N2082       N  0.95848393  0.57170106  0.74871309    -0.80800
H2083       H  0.93582274  0.58818461  0.74078806     0.18400
C2084       C  0.96820042  0.54248165  0.72891402    -0.25600
C2085       C  0.97918678  0.53205257  0.72975098     0.36400
C2086       C  0.97839733  0.52119855  0.74042880    -0.19700
C2087       C  0.96685725  0.52127982  0.75029073    -0.24900
C2088       C  0.95581436  0.53163182  0.74933728     0.27800
H2089       H  0.96860937  0.55069816  0.72059876     0.13500
N2090       N  0.99109885  0.53243941  0.71981025    -0.82200
H2091       H  0.96618644  0.51293189  0.75845569     0.18400
N2092       N  0.94376259  0.53124231  0.75910359    -0.80800
H2093       H  0.98997077  0.54102665  0.71257810     0.34000
H2094       H  0.00045606  0.53446808  0.72579335     0.38500
H2095       H  0.94480528  0.52265386  0.76634676     0.34000
H2096       H  0.94405073  0.54069366  0.76525816     0.30700
H2097       H  0.95782142  0.58268711  0.75117789     0.34000
H2098       H  0.95854761  0.56619199  0.75856559     0.30700
H2099       H  0.90913929  0.55886051  0.70742332     0.38500
H2100       H  0.90944886  0.54245332  0.71507179     0.34000
C2101       C  0.90670926  0.38933916  0.71835989    -0.19700
C2102       C  0.91990428  0.38612261  0.72524314     0.36500
C2103       C  0.93100885  0.37963331  0.71727836    -0.25700
C2104       C  0.92897168  0.37577076  0.70279335     0.02900
C2105       C  0.91565807  0.37881792  0.69593676     0.27700
C2106       C  0.90475433  0.38570926  0.70380262    -0.24800
N2107       N  0.92172907  0.38876912  0.74042587    -0.82200
H2108       H  0.94108459  0.37690558  0.72256524     0.13500
C2109       C  0.94008882  0.36668372  0.69595109     0.02900
N2110       N  0.91267395  0.37481819  0.68122332    -0.80800
H2111       H  0.89455047  0.38803184  0.69856933     0.18400
C2112       C  0.94057848  0.35210446  0.69975875    -0.25600
C2113       C  0.95090156  0.34287402  0.69378992     0.36400
C2114       C  0.96103825  0.34829426  0.68375632    -0.19700
C2115       C  0.96055079  0.36301291  0.68000278    -0.24900
C2116       C  0.95018699  0.37230174  0.68608293     0.27800
H2117       H  0.93280767  0.34783560  0.70740377     0.13500
N2118       N  0.95081090  0.32794719  0.69778280    -0.82200
H2119       H  0.96833116  0.36731211  0.67240184     0.18400
N2120       N  0.95004087  0.38739629  0.68252819    -0.80800
H2121       H  0.94070102  0.32365246  0.69517158     0.34000
H2122       H  0.95211209  0.32729223  0.70898094     0.38500
H2123       H  0.95837568  0.38983732  0.67531711     0.34000
H2124       H  0.94038647  0.38957633  0.67711776     0.30700
H2125       H  0.90427624  0.36727906  0.68137343     0.34000
H2126       H  0.92146055  0.36973147  0.67636928     0.30700
H2127       H  0.91444825  0.38216250  0.74596466     0.38500
H2128       H  0.93207298  0.38577776  0.74380333     0.34000
C2129       C  0.87810679  0.42067476  0.75148974    -0.19700
C2130       C  0.87951932  0.43555510  0.74860785     0.36500
C2131       C  0.87424310  0.44563141  0.75859005    -0.25700
C2132       C  0.86718163  0.44109079  0.77116770     0.02900
C2133       C  0.86593281  0.42628521  0.77422470     0.27700
C2134       C  0.87146763  0.41621692  0.76437695    -0.24800
N2135       N  0.88544202  0.44052084  0.73523152    -0.82200
H2136       H  0.87500688  0.45704529  0.75616479     0.13500
C2137       C  0.85989941  0.45187923  0.78030869     0.02900
N2138       N  0.85875584  0.42158310  0.78715991    -0.80800
H2139       H  0.87035263  0.40480028  0.76662965     0.18400
C2140       C  0.84478961  0.45237518  0.78024468    -0.25600
C2141       C  0.83738030  0.46290417  0.78812388     0.36400
C2142       C  0.84520470  0.47306058  0.79631725    -0.19700
C2143       C  0.86034618  0.47228671  0.79670106    -0.24900
C2144       C  0.86779552  0.46181365  0.78866622     0.27800
H2145       H  0.83872828  0.44468084  0.77383652     0.13500
N2146       N  0.82192092  0.46316757  0.78786336    -0.82200
H2147       H  0.86638929  0.48013171  0.80293213     0.18400
N2148       N  0.88329882  0.46130129  0.78880208    -0.80800
H2149       H  0.81816436  0.45319662  0.79157380     0.34000
H2150       H  0.81860851  0.46436764  0.77713524     0.38500
H2151       H  0.88747415  0.46944847  0.79540626     0.34000
H2152       H  0.88633602  0.45149566  0.79347286     0.30700
H2153       H  0.85860099  0.41032070  0.78773483     0.34000
H2154       H  0.86485345  0.42519532  0.79594986     0.30700
H2155       H  0.89416608  0.44729287  0.73758643     0.38500
H2156       H  0.87759828  0.44667604  0.72995887     0.34000
C2157       C  0.90728759  0.41771391  0.73498820    -0.19700
C2158       C  0.91239517  0.42461771  0.72247446     0.36500
C2159       C  0.92467095  0.43338426  0.72322664    -0.25700
C2160       C  0.93207828  0.43515381  0.73630673     0.02900
C2161       C  0.92700102  0.42819460  0.74888760     0.27700
C2162       C  0.91441701  0.41976853  0.74816036    -0.24800
N2163       N  0.90485189  0.42298005  0.70908101    -0.82200
H2164       H  0.92843664  0.43883280  0.71358052     0.13500
C2165       C  0.94513142  0.44433342  0.73673749     0.02900
N2166       N  0.93485419  0.42945273  0.76222014    -0.80800
H2167       H  0.91044936  0.41429455  0.75770191     0.18400
C2168       C  0.94531262  0.45639312  0.74586259    -0.25600
C2169       C  0.95771226  0.46499040  0.74716615     0.36400
C2170       C  0.97011719  0.46145971  0.73903496    -0.19700
C2171       C  0.96972415  0.44975875  0.72944382    -0.24900
C2172       C  0.95737807  0.44103579  0.72832054     0.27800
H2173       H  0.93574354  0.45903044  0.75205473     0.13500
N2174       N  0.95754170  0.47757317  0.75625871    -0.82200
H2175       H  0.97921399  0.44721109  0.72309428     0.18400
N2176       N  0.95728870  0.42872670  0.71887166    -0.80800
H2177       H  0.94720957  0.47927443  0.76046886     0.34000
H2178       H  0.96420293  0.47550257  0.76512294     0.38500
H2179       H  0.96712768  0.42784447  0.71341291     0.34000
H2180       H  0.95630694  0.41950409  0.72529652     0.30700
H2181       H  0.92972516  0.42360938  0.77040342     0.34000
H2182       H  0.94495238  0.42466166  0.76068027     0.30700
H2183       H  0.91206853  0.41880202  0.70147766     0.38500
H2184       H  0.90165557  0.43321285  0.70558466     0.34000
C2185       C  0.26611792  0.60940167  0.08088817    -0.19700
C2186       C  0.27911167  0.61717764  0.08263480     0.36500
C2187       C  0.28679326  0.62178151  0.07038639    -0.25700
C2188       C  0.28191277  0.61860012  0.05641678     0.02900
C2189       C  0.26930116  0.61030390  0.05458811     0.27700
C2190       C  0.26144922  0.60590223  0.06684359    -0.24800
N2191       N  0.28441394  0.62045654  0.09684932    -0.82200
H2192       H  0.29654663  0.62810975  0.07170326     0.13500
C2193       C  0.28948120  0.62522737  0.04395182     0.02900
N2194       N  0.26432183  0.60673916  0.04032003    -0.80800
H2195       H  0.25134699  0.60024389  0.06535126     0.18400
C2196       C  0.29780117  0.61670713  0.03460210    -0.25600
C2197       C  0.30581332  0.62304192  0.02330483     0.36400
C2198       C  0.30544517  0.63817846  0.02141326    -0.19700
C2199       C  0.29675084  0.64656430  0.03054791    -0.24900
C2200       C  0.28878791  0.64025090  0.04178276     0.27800
H2201       H  0.29817967  0.60514387  0.03625934     0.13500
N2202       N  0.31419232  0.61418120  0.01371665    -0.82200
H2203       H  0.29638616  0.65815725  0.02909448     0.18400
N2204       N  0.28007682  0.64904143  0.05114156    -0.80800
H2205       H  0.31332876  0.60331483  0.01661488     0.34000
H2206       H  0.30970140  0.61511905  0.00340020     0.38500
H2207       H  0.28083684  0.65990708  0.04821926     0.34000
H2208       H  0.26930842  0.64602055  0.04959998     0.30700
H2209       H  0.25496457  0.60044620  0.04084817     0.34000
H2210       H  0.26147170  0.61635955  0.03516989     0.30700
H2211       H  0.28691267  0.61067985  0.10188529     0.38500
H2212       H  0.29403134  0.62633759  0.09625521     0.34000
C2213       C  0.23134114  0.58348648  0.11337560    -0.19700
C2214       C  0.23527901  0.56907705  0.11641301     0.36500
C2215       C  0.22490303  0.55951508  0.12209801    -0.25700
C2216       C  0.21078173  0.56411838  0.12511269     0.02900
C2217       C  0.20687010  0.57850767  0.12212476     0.27700
C2218       C  0.21719316  0.58802967  0.11636489    -0.24800
N2219       N  0.24986137  0.56431328  0.11420145    -0.82200
H2220       H  0.22793037  0.54849957  0.12456135     0.13500
C2221       C  0.20029346  0.55386281  0.13170843     0.02900
N2222       N  0.19239625  0.58336115  0.12488129    -0.80800
H2223       H  0.21414795  0.59907812  0.11407676     0.18400
C2224       C  0.19429932  0.55699472  0.14529389    -0.25600
C2225       C  0.18447743  0.54748655  0.15195887     0.36400
C2226       C  0.18054187  0.53459777  0.14484967    -0.19700
C2227       C  0.18643682  0.53155282  0.13121010    -0.24900
C2228       C  0.19632718  0.54099330  0.12460742     0.27800
H2229       H  0.19739027  0.56686682  0.15074972     0.13500
N2230       N  0.17839007  0.55093897  0.16581432    -0.82200
H2231       H  0.18350187  0.52161390  0.12578675     0.18400
N2232       N  0.20236724  0.53756813  0.11072426    -0.80800
H2233       H  0.16728192  0.55234182  0.16440064     0.34000
H2234       H  0.18243747  0.56077798  0.16958104     0.38500
H2235       H  0.19847552  0.52763947  0.10703532     0.34000
H2236       H  0.19877543  0.54536460  0.10340393     0.30700
H2237       H  0.19128795  0.59425453  0.12218055     0.34000
H2238       H  0.18550561  0.57761624  0.11802676     0.30700
H2239       H  0.25648470  0.57012416  0.12125590     0.38500
H2240       H  0.25095372  0.55342372  0.11692314     0.34000
C2241       C  0.25118902  0.58044506  0.08654242    -0.19700
C2242       C  0.26450668  0.57344536  0.08472752     0.36500
C2243       C  0.26558788  0.56183148  0.07516309    -0.25700
C2244       C  0.25353602  0.55725641  0.06725043     0.02900
C2245       C  0.24017160  0.56437633  0.06894318     0.27700
C2246       C  0.23908224  0.57581492  0.07879184    -0.24800
N2247       N  0.27684813  0.57801801  0.09283063    -0.82200
H2248       H  0.27581746  0.55629073  0.07399326     0.13500
C2249       C  0.25488523  0.54468146  0.05759094     0.02900
N2250       N  0.22787952  0.56008148  0.06048965    -0.80800
H2251       H  0.22894113  0.58146195  0.08014133     0.18400
C2252       C  0.24623015  0.53258765  0.06025982    -0.25600
C2253       C  0.24661214  0.52063794  0.05104365     0.36400
C2254       C  0.25585797  0.52083805  0.03895320    -0.19700
C2255       C  0.26505369  0.53262129  0.03664543    -0.24900
C2256       C  0.26453519  0.54469483  0.04580211     0.27800
H2257       H  0.23908243  0.53254660  0.06952800     0.13500
N2258       N  0.23769898  0.50826086  0.05390459    -0.82200
H2259       H  0.27213238  0.53267199  0.02732701     0.18400
N2260       N  0.27341502  0.55710153  0.04297006    -0.80800
H2261       H  0.23144510  0.50989612  0.06316233     0.34000
H2262       H  0.24458466  0.49962451  0.05616816     0.38500
H2263       H  0.27987692  0.55536130  0.03387895     0.34000
H2264       H  0.26656263  0.56570021  0.04045601     0.30700
H2265       H  0.21890831  0.56642697  0.06303975     0.34000
H2266       H  0.23031348  0.56212621  0.04965470     0.30700
H2267       H  0.28497558  0.58084979  0.08552633     0.38500
H2268       H  0.28050428  0.56924726  0.09890678     0.34000
C2269       C  0.31681052  0.35615619  0.05591463    -0.19700
C2270       C  0.31325499  0.34972509  0.06921802     0.36500
C2271       C  0.30493976  0.35733949  0.07927656    -0.25700
C2272       C  0.29986515  0.37127265  0.07625260     0.02900
C2273       C  0.30351377  0.37783970  0.06297724     0.27700
C2274       C  0.31213921  0.37026412  0.05299975    -0.24800
N2275       N  0.31831917  0.33554122  0.07266864    -0.82200
H2276       H  0.30242940  0.35232616  0.08954907     0.13500
C2277       C  0.29088266  0.37874267  0.08725125     0.02900
N2278       N  0.29820539  0.39200398  0.05957700    -0.80800
H2279       H  0.31480250  0.37517427  0.04271896     0.18400
C2280       C  0.29541647  0.39208235  0.09284962    -0.25600
C2281       C  0.28782987  0.39877372  0.10417780     0.36400
C2282       C  0.27561496  0.39189016  0.11006169    -0.19700
C2283       C  0.27094443  0.37870380  0.10435213    -0.24900
C2284       C  0.27828972  0.37218283  0.09280786     0.27800
H2285       H  0.30511222  0.39708212  0.08862998     0.13500
N2286       N  0.29262051  0.41235889  0.10992751    -0.82200
H2287       H  0.26142451  0.37358134  0.10882553     0.18400
N2288       N  0.27302381  0.35894102  0.08666383    -0.80800
H2289       H  0.30173409  0.41601855  0.10436247     0.34000
H2290       H  0.29581949  0.41063065  0.12061574     0.38500
H2291       H  0.26365510  0.35554790  0.09196710     0.34000
H2292       H  0.27008782  0.36107583  0.07597098     0.30700
H2293       H  0.30184457  0.39526323  0.04939779     0.34000
H2294       H  0.28695484  0.39136879  0.05893506     0.30700
H2295       H  0.30934864  0.32904204  0.07483429     0.38500
H2296       H  0.32450539  0.33621123  0.08209125     0.34000
C2297       C  0.24214637  0.42318587  0.13782798    -0.19700
C2298       C  0.24410065  0.43333326  0.14897557     0.36500
C2299       C  0.23312698  0.44342350  0.15184681    -0.25700
C2300       C  0.22022877  0.44345332  0.14383585     0.02900
C2301       C  0.21833658  0.43323484  0.13267941     0.27700
C2302       C  0.22937152  0.42329226  0.12972978    -0.24800
N2303       N  0.25726678  0.43344155  0.15718898    -0.82200
H2304       H  0.23465615  0.45136383  0.16029790     0.13500
C2305       C  0.20874404  0.45415325  0.14725873     0.02900
N2306       N  0.20511094  0.43283481  0.12456427    -0.80800
H2307       H  0.22787366  0.41535388  0.12127308     0.18400
C2308       C  0.20350009  0.46321673  0.13629745    -0.25600
C2309       C  0.19239025  0.47319674  0.13900102     0.36400
C2310       C  0.18646582  0.47421468  0.15302345    -0.19700
C2311       C  0.19193158  0.46536848  0.16404799    -0.24900
C2312       C  0.20286145  0.45522190  0.16127959     0.27800
H2313       H  0.20817059  0.46253990  0.12558975     0.13500
N2314       N  0.18731505  0.48246429  0.12763613    -0.82200
H2315       H  0.18739407  0.46613138  0.17480682     0.18400
N2316       N  0.20781903  0.44581430  0.17257974    -0.80800
H2317       H  0.19272336  0.48026145  0.11797354     0.34000
H2318       H  0.18996393  0.49306334  0.13045703     0.38500
H2319       H  0.20242186  0.44799936  0.18225084     0.34000
H2320       H  0.20507660  0.43526452  0.16966744     0.30700
H2321       H  0.20548527  0.42473660  0.11671126     0.34000
H2322       H  0.19681735  0.43004985  0.13169713     0.30700
H2323       H  0.26567584  0.43603372  0.15011526     0.38500
H2324       H  0.25699566  0.44157447  0.16500790     0.34000
C2325       C  0.25690800  0.41898730  0.10875746    -0.19700
C2326       C  0.24958732  0.41379184  0.09640732     0.36500
C2327       C  0.24879363  0.42251592  0.08411214    -0.25700
C2328       C  0.25466818  0.43642962  0.08408675     0.02900
C2329       C  0.26137019  0.44189608  0.09659157     0.27700
C2330       C  0.26242805  0.43306845  0.10885846    -0.24800
N2331       N  0.24269366  0.39989794  0.09604713    -0.82200
H2332       H  0.24345893  0.41845462  0.07451574     0.13500
C2333       C  0.25400455  0.44497715  0.07069619     0.02900
N2334       N  0.26712262  0.45630077  0.09671248    -0.80800
H2335       H  0.26781709  0.43700173  0.11846994     0.18400
C2336       C  0.24281665  0.45491548  0.06880173    -0.25600
C2337       C  0.24160862  0.46290254  0.05595846     0.36400
C2338       C  0.25204649  0.46103371  0.04492611    -0.19700
C2339       C  0.26326340  0.45103238  0.04697090    -0.24900
C2340       C  0.26428888  0.44292378  0.05972757     0.27800
H2341       H  0.23494957  0.45633919  0.07734616     0.13500
N2342       N  0.23011409  0.47318458  0.05434503    -0.82200
H2343       H  0.27128473  0.44955246  0.03858666     0.18400
N2344       N  0.27567747  0.43256129  0.06161054    -0.80800
H2345       H  0.22418458  0.47405943  0.06391316     0.34000
H2346       H  0.22298119  0.46910420  0.04660852     0.38500
H2347       H  0.28228061  0.43222322  0.05246138     0.34000
H2348       H  0.28216623  0.43608882  0.07015110     0.30700
H2349       H  0.27157455  0.45869012  0.10681248     0.34000
H2350       H  0.27560556  0.45667735  0.08927754     0.30700
H2351       H  0.24321307  0.39481487  0.10608065     0.38500
H2352       H  0.23171314  0.40160490  0.09408249     0.34000
C2353       C  0.27958385  0.58600964  0.90822508    -0.19700
C2354       C  0.29073656  0.58179973  0.91763656     0.36500
C2355       C  0.29546950  0.59148276  0.92832255    -0.25700
C2356       C  0.28919593  0.60521261  0.92975894     0.02900
C2357       C  0.27772234  0.60920104  0.92059099     0.27700
C2358       C  0.27316046  0.59960864  0.90978869    -0.24800
N2359       N  0.29739750  0.56789056  0.91608927    -0.82200
H2360       H  0.30434717  0.58847732  0.93531910     0.13500
C2361       C  0.29523561  0.61548796  0.94046483     0.02900
N2362       N  0.27077240  0.62295425  0.92230772    -0.80800
H2363       H  0.26449987  0.60270358  0.90255745     0.18400
C2364       C  0.30046391  0.62893000  0.93574862    -0.25600
C2365       C  0.30720120  0.63845446  0.94540717     0.36400
C2366       C  0.30895339  0.63438993  0.95990634    -0.19700
C2367       C  0.30354929  0.62111948  0.96471238    -0.24900
C2368       C  0.29647235  0.61170198  0.95517376     0.27800
H2369       H  0.29961494  0.63189424  0.92445989     0.13500
N2370       N  0.31268373  0.65200656  0.94039057    -0.82200
H2371       H  0.30474613  0.61818021  0.97597618     0.18400
N2372       N  0.29050919  0.59834187  0.96033264    -0.80800
H2373       H  0.32011546  0.64995976  0.93214423     0.34000
H2374       H  0.30409490  0.65781587  0.93595159     0.38500
H2375       H  0.29233424  0.59720030  0.97141785     0.34000
H2376       H  0.27931964  0.59883741  0.95893776     0.30700
H2377       H  0.26255568  0.62422280  0.91466959     0.34000
H2378       H  0.26580362  0.62301448  0.93244498     0.30700
H2379       H  0.30257636  0.56766614  0.90606101     0.38500
H2380       H  0.30540738  0.56645770  0.92391379     0.34000
C2381       C  0.25359196  0.54862348  0.87975953    -0.19700
C2382       C  0.25654544  0.53921628  0.86816348     0.36500
C2383       C  0.24576674  0.52969204  0.86336701    -0.25700
C2384       C  0.23205955  0.52952543  0.86982002     0.02900
C2385       C  0.22922614  0.53869469  0.88164637     0.27700
C2386       C  0.24009285  0.54806574  0.88659343    -0.24800
N2387       N  0.27041915  0.53952212  0.86121041    -0.82200
H2388       H  0.24796062  0.52250864  0.85439889     0.13500
C2389       C  0.22066336  0.52003256  0.86372603     0.02900
N2390       N  0.21517387  0.53882019  0.88822355    -0.80800
H2391       H  0.23777702  0.55547763  0.89533718     0.18400
C2392       C  0.21431652  0.50938825  0.87244121    -0.25600
C2393       C  0.20382881  0.49992951  0.86683986     0.36400
C2394       C  0.19958019  0.50124330  0.85226651    -0.19700
C2395       C  0.20589901  0.51191349  0.84357580    -0.24900
C2396       C  0.21627402  0.52144080  0.84919907     0.27800
H2397       H  0.21780783  0.50826683  0.88355386     0.13500
N2398       N  0.19785726  0.48869941  0.87572947    -0.82200
H2399       H  0.20264283  0.51286144  0.83237266     0.18400
N2400       N  0.22234309  0.53258188  0.84025652    -0.80800
H2401       H  0.20213201  0.48921327  0.88616854     0.34000
H2402       H  0.20113475  0.47881223  0.87139329     0.38500
H2403       H  0.21799681  0.53213562  0.82984442     0.34000
H2404       H  0.21925325  0.54251019  0.84462940     0.30700
H2405       H  0.21486410  0.54618040  0.89677507     0.34000
H2406       H  0.20782806  0.54251974  0.88049347     0.30700
H2407       H  0.27811807  0.53629632  0.86880220     0.38500
H2408       H  0.27080855  0.53200902  0.85279601     0.34000
C2409       C  0.26459347  0.55615052  0.91057858    -0.19700
C2410       C  0.26775680  0.54128231  0.91172803     0.36500
C2411       C  0.26466772  0.53395279  0.92464142    -0.25700
C2412       C  0.25903694  0.54129769  0.93658843     0.02900
C2413       C  0.25610785  0.55615331  0.93561270     0.27700
C2414       C  0.25869190  0.56339470  0.92252870    -0.24800
N2415       N  0.27443522  0.53378491  0.89991279    -0.82200
H2416       H  0.26705211  0.52254695  0.92557040     0.13500
C2417       C  0.25688519  0.53333190  0.95024344     0.02900
N2418       N  0.25066061  0.56380824  0.94795662    -0.80800
H2419       H  0.25607895  0.57473072  0.92163488     0.18400
C2420       C  0.26732315  0.53447999  0.96112064    -0.25600
C2421       C  0.26630735  0.52619725  0.97378658     0.36400
C2422       C  0.25462200  0.51652915  0.97550227    -0.19700
C2423       C  0.24384685  0.51589285  0.96484944    -0.24900
C2424       C  0.24491333  0.52416938  0.95217210     0.27800
H2425       H  0.27641752  0.54167803  0.95957698     0.13500
N2426       N  0.27708404  0.52755245  0.98488435    -0.82200
H2427       H  0.23484914  0.50853671  0.96618106     0.18400
N2428       N  0.23409466  0.52309321  0.94109665    -0.80800
H2429       H  0.28496607  0.53505471  0.98188410     0.34000
H2430       H  0.27201309  0.53170323  0.99407742     0.38500
H2431       H  0.22605569  0.51576956  0.94411945     0.34000
H2432       H  0.22910686  0.53316748  0.94022080     0.30700
H2433       H  0.24930084  0.57473820  0.94553262     0.34000
H2434       H  0.24041395  0.55969024  0.95028633     0.30700
H2435       H  0.28466842  0.53828588  0.89836290     0.38500
H2436       H  0.27600470  0.52291364  0.90246734     0.34000
C2437       C  0.31006269  0.34825247  0.99451944    -0.19700
C2438       C  0.31468083  0.35187323  0.98047586     0.36500
C2439       C  0.30457425  0.35704740  0.97044548    -0.25700
C2440       C  0.29002808  0.35880936  0.97427195     0.02900
C2441       C  0.28555003  0.35573024  0.98850668     0.27700
C2442       C  0.29559028  0.35023675  0.99844444    -0.24800
N2443       N  0.32951395  0.34988765  0.97636031    -0.82200
H2444       H  0.30794727  0.35927443  0.95946398     0.13500
C2445       C  0.27941225  0.36254980  0.96290984     0.02900
N2446       N  0.27083212  0.35819734  0.99275671    -0.80800
H2447       H  0.29218673  0.34769746  0.00935137     0.18400
C2448       C  0.26807448  0.35290306  0.96015290    -0.25600
C2449       C  0.25839322  0.35527369  0.94877421     0.36400
C2450       C  0.26024600  0.36741610  0.93981638    -0.19700
C2451       C  0.27140654  0.37724930  0.94271958    -0.24900
C2452       C  0.28097197  0.37499263  0.95427755     0.27800
H2453       H  0.26696134  0.34330934  0.96674506     0.13500
N2454       N  0.24672281  0.34536534  0.94621923    -0.82200
H2455       H  0.27288916  0.38650639  0.93574306     0.18400
N2456       N  0.29233386  0.38515375  0.95719599    -0.80800
H2457       H  0.24693638  0.33694579  0.95372738     0.34000
H2458       H  0.23707503  0.35095558  0.94792840     0.38500
H2459       H  0.29201067  0.39367820  0.94980805     0.34000
H2460       H  0.29037156  0.38962056  0.96737566     0.30700
H2461       H  0.26930733  0.35541527  0.00359207     0.34000
H2462       H  0.26888999  0.36927914  0.99196622     0.30700
H2463       H  0.33172656  0.33883658  0.97678287     0.38500
H2464       H  0.33113469  0.35309779  0.96565744     0.34000
C2465       C  0.22894602  0.38977033  0.90205246    -0.19700
C2466       C  0.21734466  0.39777059  0.90779469     0.36500
C2467       C  0.20977900  0.40734274  0.89877387    -0.25700
C2468       C  0.21331234  0.40866392  0.88408674     0.02900
C2469       C  0.22450483  0.40019444  0.87824681     0.27700
C2470       C  0.23229467  0.39096571  0.88732584    -0.24800
N2471       N  0.21306455  0.39591084  0.92258780    -0.82200
H2472       H  0.20111550  0.41382640  0.90319691     0.13500
C2473       C  0.20569733  0.41940262  0.87503338     0.02900
N2474       N  0.22784433  0.40096318  0.86309780    -0.80800
H2475       H  0.24104344  0.38461030  0.88287680     0.18400
C2476       C  0.21384697  0.43005992  0.86801727    -0.25600
C2477       C  0.20718828  0.44048697  0.85938418     0.36400
C2478       C  0.19207940  0.44046635  0.85790054    -0.19700
C2479       C  0.18385573  0.42992314  0.86502049    -0.24900
C2480       C  0.19054977  0.41920661  0.87340956     0.27800
H2481       H  0.22546687  0.43035883  0.86935444     0.13500
N2482       N  0.21576826  0.45135965  0.85250943    -0.82200
H2483       H  0.17222224  0.42989095  0.86378679     0.18400
N2484       N  0.18209480  0.40805235  0.88010810    -0.80800
H2485       H  0.22147096  0.45692239  0.86051109     0.34000
H2486       H  0.22325795  0.44621442  0.84581969     0.38500
H2487       H  0.17113118  0.40948040  0.87784051     0.34000
H2488       H  0.18509301  0.39824103  0.87541988     0.30700
H2489       H  0.23641237  0.39408529  0.86054861     0.34000
H2490       H  0.21885157  0.39716351  0.85742569     0.30700
H2491       H  0.20950002  0.38527876  0.92381067     0.38500
H2492       H  0.20430491  0.40256802  0.92506822     0.34000
C2493       C  0.24396282  0.39484874  0.93202607    -0.19700
C2494       C  0.25077559  0.40776825  0.92751631     0.36500
C2495       C  0.25123839  0.41956219  0.93700006    -0.25700
C2496       C  0.24541533  0.41863760  0.95094629     0.02900
C2497       C  0.23861706  0.40581448  0.95544066     0.27700
C2498       C  0.23791839  0.39407514  0.94590146    -0.24800
N2499       N  0.25776488  0.40915659  0.91372603    -0.82200
H2500       H  0.25650577  0.42943477  0.93359129     0.13500
C2501       C  0.24683898  0.43104470  0.96090759     0.02900
N2502       N  0.23271108  0.40470171  0.96975583    -0.80800
H2503       H  0.23290357  0.38408976  0.94934079     0.18400
C2504       C  0.23446603  0.43864230  0.96500772    -0.25600
C2505       C  0.23531208  0.45044871  0.97448880     0.36400
C2506       C  0.24889938  0.45451287  0.98033138    -0.19700
C2507       C  0.26129387  0.44684735  0.97605463    -0.24900
C2508       C  0.26039065  0.43516414  0.96641885     0.27800
H2509       H  0.22410732  0.43542204  0.96061653     0.13500
N2510       N  0.22241302  0.45830287  0.97804907    -0.82200
H2511       H  0.27174451  0.44984293  0.98036316     0.18400
N2512       N  0.27314469  0.42734290  0.96231548    -0.80800
H2513       H  0.21335411  0.45352102  0.97330009     0.34000
H2514       H  0.22334602  0.46855947  0.97344269     0.38500
H2515       H  0.28228175  0.43176861  0.96725391     0.34000
H2516       H  0.27211845  0.41682341  0.96625918     0.30700
H2517       H  0.22803642  0.39455368  0.97133119     0.34000
H2518       H  0.24128292  0.40547645  0.97706334     0.30700
H2519       H  0.25747373  0.39951624  0.90794761     0.38500
H2520       H  0.26868566  0.41126981  0.91565456     0.34000
C2521       C  0.63589753  0.27180971  0.08679502    -0.19700
C2522       C  0.63895959  0.28671527  0.08677807     0.36500
C2523       C  0.64399221  0.29318200  0.07404275    -0.25700
C2524       C  0.64578962  0.28500218  0.06146425     0.02900
C2525       C  0.64242108  0.27022417  0.06137156     0.27700
C2526       C  0.63761328  0.26371887  0.07411675    -0.24800
N2527       N  0.63689235  0.29518194  0.09961934    -0.82200
H2528       H  0.64669285  0.30455858  0.07392893     0.13500
C2529       C  0.65242039  0.29171389  0.04876408     0.02900
N2530       N  0.64423702  0.26187293  0.04841363    -0.80800
H2531       H  0.63536460  0.25224882  0.07421801     0.18400
C2532       C  0.66730831  0.29027001  0.04690109    -0.25600
C2533       C  0.67425592  0.29630036  0.03490673     0.36400
C2534       C  0.66598316  0.30382861  0.02448737    -0.19700
C2535       C  0.65098197  0.30524328  0.02649866    -0.24900
C2536       C  0.64410466  0.29919793  0.03855183     0.27800
H2537       H  0.67352661  0.28446079  0.05493125     0.13500
N2538       N  0.68963722  0.29487065  0.03341698    -0.82200
H2539       H  0.64455221  0.31095566  0.01857943     0.18400
N2540       N  0.62877651  0.30064414  0.04051095    -0.80800
H2541       H  0.69391207  0.28865146  0.04180917     0.34000
H2542       H  0.69413248  0.30514427  0.03452031     0.38500
H2543       H  0.62425774  0.30659265  0.03205228     0.34000
H2544       H  0.62423662  0.29033212  0.03995279     0.30700
H2545       H  0.64144318  0.25109602  0.05023731     0.34000
H2546       H  0.63694888  0.26580469  0.04074979     0.30700
H2547       H  0.62586051  0.29511307  0.10200106     0.38500
H2548       H  0.63973882  0.30594011  0.09776769     0.34000
C2549       C  0.60808516  0.23981177  0.11938161    -0.19700
C2550       C  0.59300397  0.24210920  0.11855891     0.36500
C2551       C  0.58368951  0.23107485  0.12282303    -0.25700
C2552       C  0.58907114  0.21808959  0.12830924     0.02900
C2553       C  0.60402300  0.21588839  0.12951956     0.27700
C2554       C  0.61343186  0.22679721  0.12495202    -0.24800
N2555       N  0.58675045  0.25564473  0.11431490    -0.82200
H2556       H  0.57212997  0.23284862  0.12240872     0.13500
C2557       C  0.57883058  0.20774668  0.13448704     0.02900
N2558       N  0.60952535  0.20267046  0.13547682    -0.80800
H2559       H  0.62499145  0.22511644  0.12559247     0.18400
C2560       C  0.57459134  0.19561646  0.12655189    -0.25600
C2561       C  0.56417038  0.18604782  0.13205188     0.36400
C2562       C  0.55784415  0.18894062  0.14567933    -0.19700
C2563       C  0.56253909  0.20100134  0.15363958    -0.24900
C2564       C  0.57298122  0.21037949  0.14819838     0.27800
H2565       H  0.57933641  0.19372089  0.11602392     0.13500
N2566       N  0.56000078  0.17357436  0.12382167    -0.82200
H2567       H  0.55790726  0.20333548  0.16411958     0.18400
N2568       N  0.57751698  0.22276337  0.15640160    -0.80800
H2569       H  0.56539059  0.17336323  0.11390176     0.34000
H2570       H  0.56345981  0.16447491  0.12951949     0.38500
H2571       H  0.57197948  0.22329867  0.16622498     0.34000
H2572       H  0.58842543  0.22139011  0.15894295     0.30700
H2573       H  0.62081156  0.20274702  0.13548640     0.34000
H2574       H  0.60631833  0.20217415  0.14629090     0.30700
H2575       H  0.59455527  0.26360444  0.11275718     0.38500
H2576       H  0.58135630  0.25405603  0.10452113     0.34000
C2577       C  0.55131749  0.24711666  0.03831182    -0.19700
C2578       C  0.55018788  0.25527932  0.05106625     0.36500
C2579       C  0.56156146  0.25503310  0.06107369    -0.25700
C2580       C  0.57427514  0.24721133  0.05834826     0.02900
C2581       C  0.57513978  0.23858092  0.04578721     0.27700
C2582       C  0.56349990  0.23844444  0.03600998    -0.24800
N2583       N  0.53751697  0.26381287  0.05376050    -0.82200
H2584       H  0.56068265  0.26130022  0.07091440     0.13500
C2585       C  0.58676010  0.24905799  0.06834043     0.02900
N2586       N  0.58795380  0.23038697  0.04275892    -0.80800
H2587       H  0.56418533  0.23204569  0.02623653     0.18400
C2588       C  0.59382312  0.23700005  0.07423897    -0.25600
C2589       C  0.60531491  0.23864135  0.08399632     0.36400
C2590       C  0.60918201  0.25265206  0.08874779    -0.19700
C2591       C  0.60242387  0.26464077  0.08250381    -0.24900
C2592       C  0.59158547  0.26302190  0.07208955     0.27800
H2593       H  0.59045926  0.22622707  0.07119327     0.13500
N2594       N  0.61312980  0.22598292  0.08831433    -0.82200
H2595       H  0.60554128  0.27535941  0.08596001     0.18400
N2596       N  0.58543982  0.27553117  0.06527868    -0.80800
H2597       H  0.60627597  0.21965408  0.09465950     0.34000
H2598       H  0.62219183  0.22861048  0.09447722     0.38500
H2599       H  0.59017191  0.28497133  0.06925963     0.34000
H2600       H  0.58800070  0.27502731  0.05429236     0.30700
H2601       H  0.58679156  0.22460720  0.03312971     0.34000
H2602       H  0.59639914  0.23769720  0.04114167     0.30700
H2603       H  0.52877090  0.25674811  0.05477710     0.38500
H2604       H  0.53842791  0.26926170  0.06360767     0.34000
C2605       C  0.41675839  0.28796300  0.10524017    -0.19700
C2606       C  0.40243924  0.28299306  0.10371587     0.36500
C2607       C  0.39342006  0.28937532  0.09340284    -0.25700
C2608       C  0.39849480  0.30038701  0.08437310     0.02900
C2609       C  0.41288756  0.30519820  0.08567821     0.27700
C2610       C  0.42191404  0.29891850  0.09616106    -0.24800
N2611       N  0.39718370  0.27133755  0.11251894    -0.82200
H2612       H  0.38236101  0.28570496  0.09232278     0.13500
C2613       C  0.38848094  0.30655953  0.07355916     0.02900
N2614       N  0.41825218  0.31635015  0.07632682    -0.80800
H2615       H  0.43293307  0.30264285  0.09734299     0.18400
C2616       C  0.38456546  0.32114754  0.07446585    -0.25600
C2617       C  0.37419857  0.32700007  0.06505067     0.36400
C2618       C  0.36768337  0.31802575  0.05460176    -0.19700
C2619       C  0.37165934  0.30347402  0.05367872    -0.24900
C2620       C  0.38213921  0.29768681  0.06293632     0.27800
H2621       H  0.38936492  0.32786615  0.08275701     0.13500
N2622       N  0.37000707  0.34187943  0.06627476    -0.82200
H2623       H  0.36677357  0.29667750  0.04549813     0.18400
N2624       N  0.38644352  0.28284957  0.06159024    -0.80800
H2625       H  0.37581429  0.34696845  0.07451400     0.34000
H2626       H  0.35914939  0.34212282  0.06935345     0.38500
H2627       H  0.38074965  0.27779656  0.05325129     0.34000
H2628       H  0.39732850  0.28272593  0.05860729     0.30700
H2629       H  0.42904250  0.31865540  0.07871223     0.34000
H2630       H  0.41805873  0.31234613  0.06577138     0.30700
H2631       H  0.40312248  0.26212599  0.10985356     0.38500
H2632       H  0.38640439  0.26903596  0.11008193     0.34000
C2633       C  0.45164914  0.25433738  0.12669366    -0.19700
C2634       C  0.44616864  0.24067472  0.13058898     0.36500
C2635       C  0.45575600  0.22929078  0.13321332    -0.25700
C2636       C  0.47065992  0.23125245  0.13182817     0.02900
C2637       C  0.47615134  0.24463286  0.12709915     0.27700
C2638       C  0.46652922  0.25610524  0.12449487    -0.24800
N2639       N  0.43087132  0.23851397  0.13209833    -0.82200
H2640       H  0.45164506  0.21893860  0.13678220     0.13500
C2641       C  0.48027712  0.21966173  0.13702181     0.02900
N2642       N  0.49144349  0.24658780  0.12535163    -0.80800
H2643       H  0.47068367  0.26657624  0.12140116     0.18400
C2644       C  0.48623893  0.20978348  0.12726862    -0.25600
C2645       C  0.49487606  0.19827336  0.13216461     0.36400
C2646       C  0.49734733  0.19656622  0.14718722    -0.19700
C2647       C  0.49129290  0.20658693  0.15683883    -0.24900
C2648       C  0.48284712  0.21811080  0.15190821     0.27800
H2649       H  0.48414810  0.21108979  0.11582856     0.13500
N2650       N  0.50125396  0.18851836  0.12192381    -0.82200
H2651       H  0.49313060  0.20544524  0.16833612     0.18400
N2652       N  0.47670259  0.22821060  0.16196461    -0.80800
H2653       H  0.49805068  0.19110614  0.11141029     0.34000
H2654       H  0.51243307  0.19003802  0.12230779     0.38500
H2655       H  0.47945392  0.22546776  0.17256534     0.34000
H2656       H  0.48135356  0.23828956  0.15994842     0.30700
H2657       H  0.49369589  0.25702667  0.12171754     0.34000
H2658       H  0.49622326  0.24561670  0.13553426     0.30700
H2659       H  0.42620004  0.24005481  0.12193355     0.38500
H2660       H  0.42862124  0.22787720  0.13510521     0.34000
C2661       C  0.48876112  0.25642820  0.03896092    -0.19700
C2662       C  0.48500315  0.24610015  0.04958349     0.36500
C2663       C  0.47521350  0.24987527  0.06051519    -0.25700
C2664       C  0.46884385  0.26356107  0.06094409     0.02900
C2665       C  0.47204227  0.27367724  0.05006908     0.27700
C2666       C  0.48204425  0.27005441  0.03924904    -0.24800
N2667       N  0.49145459  0.23200235  0.04961114    -0.82200
H2668       H  0.47273805  0.24218032  0.06897259     0.13500
C2669       C  0.45973535  0.26734580  0.07352283     0.02900
N2670       N  0.46519788  0.28759049  0.05014561    -0.80800
H2671       H  0.48462543  0.27795136  0.03101956     0.18400
C2672       C  0.46443116  0.27825077  0.08290949    -0.25600
C2673       C  0.45730937  0.28087614  0.09596695     0.36400
C2674       C  0.44525970  0.27231610  0.09974194    -0.19700
C2675       C  0.44018418  0.26181769  0.09013561    -0.24900
C2676       C  0.44729540  0.25926840  0.07697878     0.27800
H2677       H  0.47402529  0.28442725  0.08031055     0.13500
N2678       N  0.46283835  0.29197813  0.10529917    -0.82200
H2679       H  0.43082265  0.25546578  0.09309684     0.18400
N2680       N  0.44212355  0.24838650  0.06720573    -0.80800
H2681       H  0.46184755  0.30180035  0.09984382     0.34000
H2682       H  0.45671702  0.29290491  0.11471361     0.38500
H2683       H  0.43290956  0.24338195  0.07138606     0.34000
H2684       H  0.43895492  0.25357560  0.05769613     0.30700
H2685       H  0.46873643  0.29379322  0.04140333     0.34000
H2686       H  0.45412857  0.28594471  0.04866729     0.30700
H2687       H  0.48714570  0.22632523  0.04085676     0.38500
H2688       H  0.48841728  0.22624507  0.05883439     0.34000
C2689       C  0.63225584  0.23831183  0.92045505    -0.19700
C2690       C  0.64619988  0.23562045  0.92593806     0.36500
C2691       C  0.65267947  0.24576104  0.93514185    -0.25700
C2692       C  0.64537743  0.25838461  0.93910889     0.02900
C2693       C  0.63115077  0.26072256  0.93424884     0.27700
C2694       C  0.62478015  0.25073089  0.92481033    -0.24800
N2695       N  0.65373802  0.22264522  0.92203999    -0.82200
H2696       H  0.66358381  0.24399147  0.93898437     0.13500
C2697       C  0.65304088  0.26948774  0.94764165     0.02900
N2698       N  0.62335629  0.27334402  0.93877584    -0.80800
H2699       H  0.61412593  0.25287539  0.92051753     0.18400
C2700       C  0.65506272  0.28321264  0.94157227    -0.25600
C2701       C  0.66209314  0.29416572  0.94930335     0.36400
C2702       C  0.66716166  0.29126756  0.96332227    -0.19700
C2703       C  0.66562577  0.27742518  0.96922619    -0.24900
C2704       C  0.65844958  0.26649366  0.96155515     0.27800
H2705       H  0.65115201  0.28534405  0.93074990     0.13500
N2706       N  0.66425114  0.30815964  0.94296754    -0.82200
H2707       H  0.66960250  0.27530758  0.98002980     0.18400
N2708       N  0.65636853  0.25249656  0.96790688    -0.80800
H2709       H  0.65989839  0.30850091  0.93255306     0.34000
H2710       H  0.67537518  0.30973406  0.94185960     0.38500
H2711       H  0.66100848  0.25208358  0.97819338     0.34000
H2712       H  0.64526995  0.25099138  0.96930707     0.30700
H2713       H  0.61303355  0.27347324  0.93421153     0.34000
H2714       H  0.62193170  0.27263999  0.94995612     0.30700
H2715       H  0.64787633  0.21393996  0.92618631     0.38500
H2716       H  0.66389875  0.22233385  0.92694736     0.34000
C2717       C  0.59645180  0.21011310  0.89190925    -0.19700
C2718       C  0.58837814  0.19993515  0.89999241     0.36500
C2719       C  0.57494660  0.19532384  0.89476333    -0.25700
C2720       C  0.56975255  0.20000167  0.88131262     0.02900
C2721       C  0.57816667  0.20958719  0.87301818     0.27700
C2722       C  0.59128637  0.21468015  0.87845231    -0.24800
N2723       N  0.59371935  0.19344379  0.91302913    -0.82200
H2724       H  0.56865154  0.18780187  0.90113500     0.13500
C2725       C  0.55572720  0.19461725  0.87573298     0.02900
N2726       N  0.57354900  0.21396084  0.85891400    -0.80800
H2727       H  0.59748306  0.22230323  0.87209249     0.18400
C2728       C  0.54547126  0.20463133  0.87084886    -0.25600
C2729       C  0.53292377  0.20012116  0.86368182     0.36400
C2730       C  0.53043675  0.18525106  0.86166033    -0.19700
C2731       C  0.54009368  0.17519476  0.86755873    -0.24900
C2732       C  0.55284528  0.17971174  0.87440833     0.27800
H2733       H  0.54748352  0.21605730  0.87229501     0.13500
N2734       N  0.52278027  0.21057089  0.85834182    -0.82200
H2735       H  0.53809576  0.16376795  0.86609483     0.18400
N2736       N  0.56310010  0.16923815  0.87948168    -0.80800
H2737       H  0.52630344  0.22104781  0.86060631     0.34000
H2738       H  0.51310879  0.20911706  0.86397952     0.38500
H2739       H  0.55926752  0.15876440  0.87776741     0.34000
H2740       H  0.57245811  0.17031997  0.87326615     0.30700
H2741       H  0.57276627  0.22521062  0.85881379     0.34000
H2742       H  0.58150771  0.21095098  0.85150017     0.30700
H2743       H  0.60438026  0.19639840  0.91513656     0.38500
H2744       H  0.58732645  0.19705771  0.92159332     0.34000
C2745       C  0.60125248  0.22629969  0.92049426    -0.19700
C2746       C  0.60347453  0.22153442  0.93473337     0.36500
C2747       C  0.59297854  0.22419325  0.94528580    -0.25700
C2748       C  0.58025098  0.23159694  0.94181757     0.02900
C2749       C  0.57791457  0.23628814  0.92750512     0.27700
C2750       C  0.58847882  0.23358261  0.91695556    -0.24800
N2751       N  0.61628282  0.21372191  0.93838274    -0.82200
H2752       H  0.59480601  0.22055253  0.95625592     0.13500
C2753       C  0.56958140  0.23458703  0.95333995     0.02900
N2754       N  0.56482810  0.24373293  0.92378340    -0.80800
H2755       H  0.58685741  0.23723146  0.90596415     0.18400
C2756       C  0.56649298  0.24891789  0.95695347    -0.25600
C2757       C  0.55637461  0.25229639  0.96773742     0.36400
C2758       C  0.54935871  0.24098333  0.97532270    -0.19700
C2759       C  0.55263361  0.22660381  0.97167151    -0.24900
C2760       C  0.56257636  0.22330444  0.96071233     0.27800
H2761       H  0.57198112  0.25752335  0.95123588     0.13500
N2762       N  0.55325166  0.26715885  0.97088316    -0.82200
H2763       H  0.54735950  0.21783251  0.97731823     0.18400
N2764       N  0.56551405  0.20854864  0.95694340    -0.80800
H2765       H  0.55990374  0.27401025  0.96486343     0.34000
H2766       H  0.54270276  0.26917915  0.96741814     0.38500
H2767       H  0.55951243  0.20152170  0.96342489     0.34000
H2768       H  0.56199300  0.20695894  0.94633217     0.30700
H2769       H  0.56482948  0.24651204  0.91283969     0.34000
H2770       H  0.55625837  0.23654365  0.92528902     0.30700
H2771       H  0.62160044  0.21933741  0.94660886     0.38500
H2772       H  0.61320471  0.20366166  0.94245229     0.34000
C2773       C  0.39462134  0.26677236  0.93935897    -0.19700
C2774       C  0.39179438  0.26019773  0.95278258     0.36500
C2775       C  0.38582073  0.26850536  0.96404672    -0.25700
C2776       C  0.38250165  0.28317483  0.96201956     0.02900
C2777       C  0.38586013  0.28979302  0.94869375     0.27700
C2778       C  0.39189545  0.28151234  0.93753917    -0.24800
N2779       N  0.39455485  0.24507044  0.95475546    -0.82200
H2780       H  0.38342282  0.26346976  0.97432933     0.13500
C2781       C  0.37509763  0.29146460  0.97365403     0.02900
N2782       N  0.38266924  0.30479033  0.94636534    -0.80800
H2783       H  0.39401673  0.28645455  0.92714530     0.18400
C2784       C  0.38132953  0.30429390  0.97871519    -0.25600
C2785       C  0.37429255  0.31301799  0.98895075     0.36400
C2786       C  0.36058974  0.30883217  0.99431607    -0.19700
C2787       C  0.35454943  0.29574165  0.98948332    -0.24900
C2788       C  0.36159280  0.28708084  0.97917929     0.27800
H2789       H  0.39179185  0.30753165  0.97460399     0.13500
N2790       N  0.38111962  0.32604043  0.99390680    -0.82200
H2791       H  0.34412444  0.29233934  0.99354400     0.18400
N2792       N  0.35494056  0.27400981  0.97409459    -0.80800
H2793       H  0.39085879  0.32778478  0.98847435     0.34000
H2794       H  0.38376648  0.32455171  0.00478345     0.38500
H2795       H  0.34508370  0.27225725  0.97930987     0.34000
H2796       H  0.35260190  0.27538498  0.96313494     0.30700
H2797       H  0.38593765  0.30801516  0.93605032     0.34000
H2798       H  0.37145619  0.30599466  0.94673558     0.30700
H2799       H  0.39187751  0.24190794  0.96525751     0.38500
H2800       H  0.38769446  0.23938590  0.94782121     0.34000
C2801       C  0.42018168  0.23604187  0.90286959    -0.19700
C2802       C  0.43413871  0.24129170  0.89976964     0.36500
C2803       C  0.44359311  0.23282203  0.89141261    -0.25700
C2804       C  0.43921722  0.21942060  0.88581300     0.02900
C2805       C  0.42518819  0.21429400  0.88879804     0.27700
C2806       C  0.41586908  0.22262906  0.89733446    -0.24800
N2807       N  0.43850946  0.25531501  0.90473842    -0.82200
H2808       H  0.45437408  0.23673565  0.88911686     0.13500
C2809       C  0.44937105  0.21080437  0.87685011     0.02900
N2810       N  0.42038188  0.20075132  0.88293604    -0.80800
H2811       H  0.40507090  0.21871856  0.89957406     0.18400
C2812       C  0.45274971  0.19669118  0.88107954    -0.25600
C2813       C  0.46202363  0.18803772  0.87282955     0.36400
C2814       C  0.46831236  0.19358713  0.86005960    -0.19700
C2815       C  0.46492632  0.20779897  0.85587618    -0.24900
C2816       C  0.45546536  0.21640913  0.86406535     0.27800
H2817       H  0.44814740  0.19233355  0.89091832     0.13500
N2818       N  0.46498615  0.17363681  0.87756772    -0.82200
H2819       H  0.46961080  0.21224135  0.84612577     0.18400
N2820       N  0.45189741  0.23075197  0.85936686    -0.80800
H2821       H  0.45519042  0.16806832  0.87824796     0.34000
H2822       H  0.46943489  0.17417824  0.88793312     0.38500
H2823       H  0.45733893  0.23328399  0.84980416     0.34000
H2824       H  0.44087512  0.23090355  0.85694566     0.30700
H2825       H  0.40982061  0.19850057  0.88622477     0.34000
H2826       H  0.42011946  0.20178581  0.87169550     0.30700
H2827       H  0.43189857  0.26293697  0.89969996     0.38500
H2828       H  0.44908996  0.25755945  0.90151116     0.34000
C2829       C  0.42324099  0.25043683  0.93335800    -0.19700
C2830       C  0.42957943  0.23724304  0.93738257     0.36500
C2831       C  0.44203921  0.23718869  0.94599055    -0.25700
C2832       C  0.44804726  0.25011915  0.95116189     0.02900
C2833       C  0.44142178  0.26335054  0.94751920     0.27700
C2834       C  0.42921836  0.26336415  0.93849388    -0.24800
N2835       N  0.42317078  0.22387082  0.93305836    -0.82200
H2836       H  0.44699211  0.22696361  0.94872677     0.13500
C2837       C  0.46110782  0.24963753  0.96053639     0.02900
N2838       N  0.44700223  0.27669418  0.95313726    -0.80800
H2839       H  0.42434123  0.27350587  0.93538005     0.18400
C2840       C  0.47326398  0.25799875  0.95694285    -0.25600
C2841       C  0.48565541  0.25807262  0.96574164     0.36400
C2842       C  0.48598573  0.24935714  0.97821999    -0.19700
C2843       C  0.47398088  0.24075905  0.98161648    -0.24900
C2844       C  0.46147148  0.24098379  0.97307549     0.27800
H2845       H  0.47308085  0.26447365  0.94720535     0.13500
N2846       N  0.49791479  0.26680811  0.96196628    -0.82200
H2847       H  0.47417972  0.23417588  0.99128647     0.18400
N2848       N  0.44902352  0.23271138  0.97727590    -0.80800
H2849       H  0.49587110  0.27263915  0.95252057     0.34000
H2850       H  0.50649422  0.25985593  0.95966599     0.38500
H2851       H  0.45108515  0.22691147  0.98673678     0.34000
H2852       H  0.44074914  0.23998270  0.97969825     0.30700
H2853       H  0.44091495  0.28542221  0.94940190     0.34000
H2854       H  0.44576412  0.27645662  0.96435850     0.30700
H2855       H  0.42056450  0.21806666  0.94238020     0.38500
H2856       H  0.43090603  0.21797396  0.92733776     0.34000
C2857       C  0.61216393  0.08472878  0.73535345    -0.19700
C2858       C  0.61724541  0.08838462  0.72144212     0.36500
C2859       C  0.62351700  0.07768597  0.71270246    -0.25700
C2860       C  0.62499866  0.06349791  0.71768347     0.02900
C2861       C  0.61990725  0.05980930  0.73156429     0.27700
C2862       C  0.61329940  0.07043443  0.74017307    -0.24800
N2863       N  0.61627412  0.10301357  0.71637902    -0.82200
H2864       H  0.62768596  0.08049230  0.70213365     0.13500
C2865       C  0.63341105  0.05308108  0.70895702     0.02900
N2866       N  0.62233685  0.04557144  0.73722050    -0.80800
H2867       H  0.60975956  0.06773765  0.75098985     0.18400
C2868       C  0.64850400  0.05361269  0.70970593    -0.25600
C2869       C  0.65701012  0.04357776  0.70224456     0.36400
C2870       C  0.65036127  0.03270356  0.69393352    -0.19700
C2871       C  0.63524497  0.03262263  0.69257897    -0.24900
C2872       C  0.62667225  0.04275834  0.70001120     0.27800
H2873       H  0.65371077  0.06179673  0.71625408     0.13500
N2874       N  0.67242384  0.04459140  0.70295861    -0.82200
H2875       H  0.63009977  0.02439576  0.68604526     0.18400
N2876       N  0.61124520  0.04278255  0.69829685    -0.80800
H2877       H  0.67546034  0.05475285  0.69910906     0.34000
H2878       H  0.67549890  0.04390369  0.71380063     0.38500
H2879       H  0.60805701  0.03467692  0.69111673     0.34000
H2880       H  0.60658122  0.04025150  0.70824095     0.30700
H2881       H  0.61847595  0.04479933  0.74780292     0.34000
H2882       H  0.61629560  0.03829357  0.73109439     0.30700
H2883       H  0.62064105  0.10393630  0.70600813     0.38500
H2884       H  0.60533493  0.10562702  0.71552453     0.34000
C2885       C  0.58294770  0.11245944  0.77130562    -0.19700
C2886       C  0.58550131  0.11680540  0.78565305     0.36500
C2887       C  0.57421551  0.12271367  0.79385834    -0.25700
C2888       C  0.56032722  0.12426490  0.78798474     0.02900
C2889       C  0.55760601  0.11931837  0.77382411     0.27700
C2890       C  0.56897427  0.11359274  0.76560293    -0.24800
N2891       N  0.59954007  0.11520251  0.79192292    -0.82200
H2892       H  0.57640349  0.12644428  0.80473319     0.13500
C2893       C  0.54898011  0.13188838  0.79637595     0.02900
N2894       N  0.54333664  0.12030668  0.76780198    -0.80800
H2895       H  0.56697409  0.11042609  0.75455339     0.18400
C2896       C  0.54248250  0.14416062  0.79038288    -0.25600
C2897       C  0.53190217  0.15188835  0.79793017     0.36400
C2898       C  0.52779163  0.14747521  0.81195137    -0.19700
C2899       C  0.53424094  0.13508583  0.81790244    -0.24900
C2900       C  0.54475426  0.12723018  0.81024568     0.27800
H2901       H  0.54570003  0.14783257  0.77974491     0.13500
N2902       N  0.52524072  0.16407687  0.79115780    -0.82200
H2903       H  0.53115637  0.13154949  0.82861641     0.18400
N2904       N  0.55109890  0.11451670  0.81645217    -0.80800
H2905       H  0.52045981  0.16059333  0.78153775     0.34000
H2906       H  0.53332552  0.17150949  0.78855102     0.38500
H2907       H  0.54686252  0.11257191  0.82673535     0.34000
H2908       H  0.54812491  0.10574056  0.81000896     0.30700
H2909       H  0.54317237  0.11628966  0.75725019     0.34000
H2910       H  0.53660035  0.11361811  0.77390765     0.30700
H2911       H  0.59855639  0.10866811  0.80107362     0.38500
H2912       H  0.60308229  0.12537422  0.79528115     0.34000
C2913       C  0.58370655  0.08487446  0.75323646    -0.19700
C2914       C  0.57404038  0.08337464  0.74155510     0.36500
C2915       C  0.56264974  0.07350629  0.74251059    -0.25700
C2916       C  0.56082652  0.06494595  0.75485720     0.02900
C2917       C  0.57056884  0.06624684  0.76647906     0.27700
C2918       C  0.58183863  0.07636397  0.76560930    -0.24800
N2919       N  0.57538906  0.09193146  0.72875679    -0.82200
H2920       H  0.55524795  0.07238782  0.73351344     0.13500
C2921       C  0.54929451  0.05393530  0.75499421     0.02900
N2922       N  0.56920593  0.05703680  0.77889656    -0.80800
H2923       H  0.58926065  0.07765462  0.77455831     0.18400
C2924       C  0.55204905  0.04054673  0.74855083    -0.25600
C2925       C  0.54137449  0.02980068  0.74807660     0.36400
C2926       C  0.52775576  0.03252796  0.75426445    -0.19700
C2927       C  0.52502835  0.04586684  0.76088206    -0.24900
C2928       C  0.53564517  0.05673541  0.76112490     0.27800
H2929       H  0.56255813  0.03853215  0.74382380     0.13500
N2930       N  0.54430051  0.01609956  0.74141687    -0.82200
H2931       H  0.51446862  0.04792851  0.76547347     0.18400
N2932       N  0.53246655  0.07072132  0.76704080    -0.80800
H2933       H  0.55481776  0.01585358  0.73732786     0.34000
H2934       H  0.54377796  0.00821165  0.74947239     0.38500
H2935       H  0.52181956  0.07109843  0.77076553     0.34000
H2936       H  0.53906295  0.07230926  0.77604972     0.30700
H2937       H  0.57747070  0.05913478  0.78629557     0.34000
H2938       H  0.55954227  0.05960047  0.78410294     0.30700
H2939       H  0.58523954  0.08952290  0.72387032     0.38500
H2940       H  0.57543589  0.10282393  0.73165492     0.34000
C2941       C  0.35575709  0.03979063  0.68076105    -0.19700
C2942       C  0.36403197  0.05123937  0.67513253     0.36500
C2943       C  0.37136952  0.06051427  0.68459304    -0.25700
C2944       C  0.37069642  0.05842777  0.69958550     0.02900
C2945       C  0.36299979  0.04656628  0.70520116     0.27700
C2946       C  0.35546267  0.03747475  0.69574175    -0.24800
N2947       N  0.36455845  0.05382860  0.65989500    -0.82200
H2948       H  0.37718826  0.06968009  0.68024061     0.13500
C2949       C  0.37675471  0.06952269  0.70934120     0.02900
N2950       N  0.36278687  0.04391564  0.72050240    -0.80800
H2951       H  0.34940985  0.02845792  0.70008728     0.18400
C2952       C  0.36736586  0.07651877  0.71891069    -0.25600
C2953       C  0.37230142  0.08751324  0.72796223     0.36400
C2954       C  0.38688026  0.09173431  0.72744257    -0.19700
C2955       C  0.39636043  0.08471539  0.71792477    -0.24900
C2956       C  0.39143471  0.07355481  0.70887653     0.27800
H2957       H  0.35605530  0.07353215  0.71923964     0.13500
N2958       N  0.36249964  0.09425479  0.73783455    -0.82200
H2959       H  0.40754572  0.08808435  0.71740028     0.18400
N2960       N  0.40120519  0.06634560  0.69922490    -0.80800
H2961       H  0.35402021  0.09869664  0.73186120     0.34000
H2962       H  0.35822162  0.08626558  0.74456068     0.38500
H2963       H  0.41159838  0.07064903  0.70017836     0.34000
H2964       H  0.40185790  0.05556923  0.70248438     0.30700
H2965       H  0.35659717  0.03478221  0.72287191     0.34000
H2966       H  0.37335691  0.04158837  0.72369897     0.30700
H2967       H  0.36067174  0.06423554  0.65796232     0.38500
H2968       H  0.37536531  0.05349355  0.65666009     0.34000
C2969       C  0.41709951  0.12271350  0.75961593    -0.19700
C2970       C  0.42377051  0.13612669  0.75684608     0.36500
C2971       C  0.43403757  0.14147222  0.76658765    -0.25700
C2972       C  0.43806407  0.13350369  0.77878258     0.02900
C2973       C  0.43198273  0.11977803  0.78118972     0.27700
C2974       C  0.42134662  0.11460369  0.77169257    -0.24800
N2975       N  0.42013136  0.14423120  0.74411927    -0.82200
H2976       H  0.43886355  0.15196533  0.76474457     0.13500
C2977       C  0.44836023  0.13996506  0.78911671     0.02900
N2978       N  0.43663598  0.11121392  0.79325968    -0.80800
H2979       H  0.41623354  0.10431124  0.77382145     0.18400
C2980       C  0.44378723  0.14289598  0.80326616    -0.25600
C2981       C  0.45303104  0.14973032  0.81315799     0.36400
C2982       C  0.46699293  0.15374379  0.80869120    -0.19700
C2983       C  0.47152718  0.15091550  0.79453583    -0.24900
C2984       C  0.46239805  0.14385619  0.78473251     0.27800
H2985       H  0.43291938  0.14001658  0.80650301     0.13500
N2986       N  0.44827556  0.15279909  0.82761340    -0.82200
H2987       H  0.48237898  0.15384771  0.79127555     0.18400
N2988       N  0.46734145  0.14044058  0.77041727    -0.80800
H2989       H  0.43770001  0.14915917  0.82914807     0.34000
H2990       H  0.44803978  0.16401122  0.82882076     0.38500
H2991       H  0.47794836  0.14400542  0.76893112     0.34000
H2992       H  0.46755289  0.12920105  0.76948651     0.30700
H2993       H  0.43114138  0.10135983  0.79345241     0.34000
H2994       H  0.44754361  0.10878552  0.79168098     0.30700
H2995       H  0.42336546  0.13816365  0.73516858     0.38500
H2996       H  0.42596140  0.15388665  0.74374252     0.34000
C2997       C  0.46521796  0.03462263  0.75111730    -0.19700
C2998       C  0.46400483  0.04377263  0.73897920     0.36500
C2999       C  0.45362785  0.05470151  0.73882262    -0.25700
C3000       C  0.44465073  0.05718642  0.75074111     0.02900
C3001       C  0.44580601  0.04815303  0.76297287     0.27700
C3002       C  0.45602273  0.03689953  0.76299296    -0.24800
N3003       N  0.47353473  0.04232208  0.72688035    -0.82200
H3004       H  0.45271543  0.06146055  0.72931583     0.13500
C3005       C  0.43435526  0.06947049  0.75010595     0.02900
N3006       N  0.43677660  0.05055315  0.77536570    -0.80800
H3007       H  0.45684393  0.02993797  0.77235207     0.18400
C3008       C  0.41960885  0.06715007  0.75272524    -0.25600
C3009       C  0.40961589  0.07843513  0.75134901     0.36400
C3010       C  0.41427418  0.09211958  0.74663118    -0.19700
C3011       C  0.42900470  0.09445647  0.74410139    -0.24900
C3012       C  0.43913856  0.08341718  0.74620021     0.27800
H3013       H  0.41580610  0.05652372  0.75577306     0.13500
N3014       N  0.39479323  0.07604709  0.75499831    -0.82200
H3015       H  0.43259493  0.10500906  0.74059947     0.18400
N3016       N  0.45429191  0.08631905  0.74448546    -0.80800
H3017       H  0.39433063  0.07271462  0.76577432     0.34000
H3018       H  0.39090752  0.06761316  0.74857903     0.38500
H3019       H  0.45599363  0.09710330  0.74164890     0.34000
H3020       H  0.45919171  0.08482859  0.75454844     0.30700
H3021       H  0.43893625  0.04293747  0.78340658     0.34000
H3022       H  0.43947619  0.06063222  0.77965800     0.30700
H3023       H  0.47907676  0.05206511  0.72556425     0.38500
H3024       H  0.46728517  0.04056236  0.71764283     0.34000
C3025       C  0.61161762  0.91536059  0.73692357    -0.19700
C3026       C  0.60445466  0.92082879  0.72462253     0.36500
C3027       C  0.61111513  0.93166915  0.71632599    -0.25700
C3028       C  0.62496655  0.93672687  0.71980141     0.02900
C3029       C  0.63239020  0.93072172  0.73167021     0.27700
C3030       C  0.62557763  0.92022486  0.74017679    -0.24800
N3031       N  0.59061156  0.91520836  0.72045728    -0.82200
H3032       H  0.60549902  0.93620972  0.70712702     0.13500
C3033       C  0.63157916  0.94854725  0.71124509     0.02900
N3034       N  0.64685280  0.93529616  0.73499086    -0.80800
H3035       H  0.63117456  0.91584893  0.74947121     0.18400
C3036       C  0.63586927  0.96114790  0.71844091    -0.25600
C3037       C  0.64341841  0.97203645  0.71120247     0.36400
C3038       C  0.64665153  0.97046804  0.69643230    -0.19700
C3039       C  0.64160517  0.95828249  0.68895990    -0.24900
C3040       C  0.63420048  0.94718780  0.69627553     0.27800
H3041       H  0.63359130  0.96240683  0.72985466     0.13500
N3042       N  0.64774713  0.98473978  0.71888233    -0.82200
H3043       H  0.64406645  0.95709397  0.67758094     0.18400
N3044       N  0.62976433  0.93439430  0.68869920    -0.80800
H3045       H  0.63848524  0.98960165  0.72311103     0.34000
H3046       H  0.65428034  0.98158384  0.72752784     0.38500
H3047       H  0.63248554  0.93511545  0.67776362     0.34000
H3048       H  0.63561196  0.92572722  0.69292578     0.30700
H3049       H  0.65076145  0.92988175  0.74408973     0.34000
H3050       H  0.65344632  0.93227392  0.72634186     0.30700
H3051       H  0.59200074  0.90434943  0.71775352     0.38500
H3052       H  0.58681643  0.92040552  0.71118712     0.34000
C3053       C  0.51708599  0.86441231  0.80878582    -0.19700
C3054       C  0.52959623  0.86860770  0.81639811     0.36500
C3055       C  0.54099330  0.87520151  0.80883971    -0.25700
C3056       C  0.53998996  0.87764399  0.79393049     0.02900
C3057       C  0.52710904  0.87432593  0.78655758     0.27700
C3058       C  0.51579512  0.86762302  0.79405381    -0.24800
N3059       N  0.53112935  0.86513788  0.83145228    -0.82200
H3060       H  0.55097370  0.87773062  0.81439950     0.13500
C3061       C  0.55304409  0.88185902  0.78579346     0.02900
N3062       N  0.52584551  0.87729563  0.77137174    -0.80800
H3063       H  0.50611445  0.86443393  0.78829764     0.18400
C3064       C  0.55916847  0.87173155  0.77638801    -0.25600
C3065       C  0.57146640  0.87508627  0.76824810     0.36400
C3066       C  0.57783288  0.88884020  0.76965852    -0.19700
C3067       C  0.57184013  0.89891931  0.77927433    -0.24900
C3068       C  0.55940627  0.89556961  0.78732886     0.27800
H3069       H  0.55422607  0.86118120  0.77533521     0.13500
N3070       N  0.57732662  0.86469913  0.75831926    -0.82200
H3071       H  0.57683275  0.90942610  0.78043415     0.18400
N3072       N  0.55314379  0.90601037  0.79693241    -0.80800
H3073       H  0.57141082  0.85509559  0.75865259     0.34000
H3074       H  0.57612022  0.86885590  0.74789271     0.38500
H3075       H  0.55914942  0.91556384  0.79681708     0.34000
H3076       H  0.54290589  0.90858136  0.79294115     0.30700
H3077       H  0.51571711  0.87410412  0.76753741     0.34000
H3078       H  0.52642995  0.88848006  0.77004200     0.30700
H3079       H  0.52359687  0.87129621  0.83715396     0.38500
H3080       H  0.54129932  0.86826991  0.83522220     0.34000
C3081       C  0.58120046  0.91612048  0.75097165    -0.19700
C3082       C  0.56693198  0.91301538  0.74659744     0.36500
C3083       C  0.55671326  0.92417321  0.74604268    -0.25700
C3084       C  0.56061611  0.93839701  0.74934319     0.02900
C3085       C  0.57503935  0.94166102  0.75289557     0.27700
C3086       C  0.58516248  0.93043625  0.75390086    -0.24800
N3087       N  0.56292480  0.89855022  0.74272812    -0.82200
H3088       H  0.54562996  0.92178160  0.74315712     0.13500
C3089       C  0.54932728  0.94966044  0.74968500     0.02900
N3090       N  0.57928298  0.95635187  0.75547971    -0.80800
H3091       H  0.59616227  0.93279622  0.75708007     0.18400
C3092       C  0.54540218  0.95564336  0.76299515    -0.25600
C3093       C  0.53452694  0.96615791  0.76396909     0.36400
C3094       C  0.52722013  0.97062757  0.75128272    -0.19700
C3095       C  0.53131891  0.96457757  0.73792447    -0.24900
C3096       C  0.54233180  0.95420294  0.73700490     0.27800
H3097       H  0.55089979  0.95206690  0.77268672     0.13500
N3098       N  0.53103490  0.97231231  0.77778363    -0.82200
H3099       H  0.52593387  0.96794238  0.72810557     0.18400
N3100       N  0.54648671  0.94828102  0.72326824    -0.80800
H3101       H  0.53699809  0.96738225  0.78600015     0.34000
H3102       H  0.53429348  0.98311210  0.77757747     0.38500
H3103       H  0.54027025  0.95273452  0.71496936     0.34000
H3104       H  0.55716748  0.95137151  0.72131133     0.30700
H3105       H  0.59028882  0.95692059  0.75791960     0.34000
H3106       H  0.57784143  0.96203194  0.74583036     0.30700
H3107       H  0.56888241  0.89566756  0.73358953     0.38500
H3108       H  0.55203292  0.89805923  0.73981482     0.34000
C3109       C  0.35869743  0.97994786  0.67683716    -0.19700
C3110       C  0.36155965  0.98136136  0.69174501     0.36500
C3111       C  0.36872656  0.97016886  0.69903038    -0.25700
C3112       C  0.37282962  0.95760321  0.69169423     0.02900
C3113       C  0.36996429  0.95620556  0.67679999     0.27700
C3114       C  0.36322590  0.96759082  0.66942866    -0.24800
N3115       N  0.35696627  0.99404178  0.69941940    -0.82200
H3116       H  0.37070921  0.97100888  0.71053675     0.13500
C3117       C  0.37831154  0.94521159  0.70002940     0.02900
N3118       N  0.37291899  0.94283944  0.66948910    -0.80800
H3119       H  0.36073273  0.96647936  0.65804597     0.18400
C3120       C  0.36830660  0.93657011  0.70733954    -0.25600
C3121       C  0.37269416  0.92400512  0.71444003     0.36400
C3122       C  0.38729275  0.91983156  0.71403817    -0.19700
C3123       C  0.39742022  0.92874283  0.70710006    -0.24900
C3124       C  0.39308789  0.94159546  0.70028251     0.27800
H3125       H  0.35699021  0.93953663  0.70740645     0.13500
N3126       N  0.36233010  0.91561898  0.72227358    -0.82200
H3127       H  0.40868705  0.92563552  0.70693582     0.18400
N3128       N  0.40361314  0.95115294  0.69404318    -0.80800
H3129       H  0.35419516  0.91248751  0.71509922     0.34000
H3130       H  0.35769417  0.92223170  0.73015542     0.38500
H3131       H  0.41402408  0.94705578  0.69551006     0.34000
H3132       H  0.40188559  0.95160137  0.68291683     0.30700
H3133       H  0.36949135  0.94334604  0.65874137     0.34000
H3134       H  0.38408129  0.94138608  0.66918884     0.30700
H3135       H  0.36264764  0.00282703  0.69519031     0.38500
H3136       H  0.35977500  0.99332587  0.71033406     0.34000
C3137       C  0.41205172  0.88481314  0.74637060    -0.19700
C3138       C  0.42073024  0.87258151  0.74398611     0.36500
C3139       C  0.42884799  0.86691586  0.75545165    -0.25700
C3140       C  0.42808224  0.87292585  0.76936464     0.02900
C3141       C  0.41915833  0.88504336  0.77177047     0.27700
C3142       C  0.41142202  0.89101057  0.76016411    -0.24800
N3143       N  0.42130716  0.86601309  0.72992690    -0.82200
H3144       H  0.43588456  0.85779194  0.75351057     0.13500
C3145       C  0.43702302  0.86659692  0.78111765     0.02900
N3146       N  0.41778673  0.89105849  0.78601516    -0.80800
H3147       H  0.40452156  0.90027216  0.76196127     0.18400
C3148       C  0.44640890  0.87554733  0.78898194    -0.25600
C3149       C  0.45594119  0.86980950  0.79929518     0.36400
C3150       C  0.45611739  0.85479215  0.80174106    -0.19700
C3151       C  0.44659586  0.84586103  0.79406656    -0.24900
C3152       C  0.43689871  0.85161854  0.78393398     0.27800
H3153       H  0.44668988  0.88699941  0.78666990     0.13500
N3154       N  0.46587471  0.87908862  0.80679846    -0.82200
H3155       H  0.44676101  0.83432892  0.79597948     0.18400
N3156       N  0.42698953  0.84231796  0.77642574    -0.80800
H3157       H  0.46428268  0.88984685  0.80381347     0.34000
H3158       H  0.47630519  0.87635079  0.80346608     0.38500
H3159       H  0.42835354  0.83160178  0.77966474     0.34000
H3160       H  0.41654204  0.84530767  0.77945951     0.30700
H3161       H  0.41081923  0.89992511  0.78592481     0.34000
H3162       H  0.41297242  0.88323599  0.79257267     0.30700
H3163       H  0.42591162  0.87344854  0.72280667     0.38500
H3164       H  0.42811390  0.85702361  0.73002905     0.34000
C3165       C  0.41257228  0.91612113  0.73528585    -0.19700
C3166       C  0.42759433  0.91462654  0.73340935     0.36500
C3167       C  0.43678814  0.92592421  0.73751572    -0.25700
C3168       C  0.43123013  0.93887045  0.74298606     0.02900
C3169       C  0.41620001  0.94048661  0.74471059     0.27700
C3170       C  0.40700935  0.92899426  0.74099258    -0.24800
N3171       N  0.43338577  0.90183836  0.72686230    -0.82200
H3172       H  0.44833446  0.92485380  0.73597262     0.13500
C3173       C  0.44139467  0.95080824  0.74606508     0.02900
N3174       N  0.41037356  0.95379504  0.75011309    -0.80800
H3175       H  0.39544946  0.93009703  0.74232884     0.18400
C3176       C  0.44090437  0.96328266  0.73752855    -0.25600
C3177       C  0.45148010  0.97406779  0.73891236     0.36400
C3178       C  0.46278980  0.97223217  0.74897144    -0.19700
C3179       C  0.46285818  0.96007617  0.75799576    -0.24900
C3180       C  0.45227729  0.94929442  0.75659591     0.27800
H3181       H  0.43246480  0.96440307  0.72950017     0.13500
N3182       N  0.45078585  0.98686889  0.73017379    -0.82200
H3183       H  0.47144246  0.95878009  0.76583882     0.18400
N3184       N  0.45264871  0.93667864  0.76561267    -0.80800
H3185       H  0.44181354  0.98652104  0.72332965     0.34000
H3186       H  0.44921233  0.99563078  0.73711126     0.38500
H3187       H  0.46138850  0.93715918  0.77274271     0.34000
H3188       H  0.44330479  0.93672815  0.77194413     0.30700
H3189       H  0.39910731  0.95327528  0.75056961     0.34000
H3190       H  0.41400325  0.95505607  0.76072978     0.30700
H3191       H  0.42957137  0.90140880  0.71624301     0.38500
H3192       H  0.44464020  0.90241414  0.72625173     0.34000
C3193       C  0.63759347  0.68699834  0.02131410    -0.19700
C3194       C  0.64434520  0.69117859  0.03425915     0.36500
C3195       C  0.63614807  0.69802696  0.04495718    -0.25700
C3196       C  0.62137863  0.70065920  0.04290329     0.02900
C3197       C  0.61460074  0.69632536  0.02997578     0.27700
C3198       C  0.62280459  0.68940241  0.01929220    -0.24800
N3199       N  0.65945060  0.68836937  0.03647351    -0.82200
H3200       H  0.64130444  0.70149600  0.05487571     0.13500
C3201       C  0.61339541  0.70854681  0.05420293     0.02900
N3202       N  0.59949134  0.69906426  0.02775683    -0.80800
H3203       H  0.61774519  0.68610993  0.00926021     0.18400
C3204       C  0.60759316  0.72209994  0.05091723    -0.25600
C3205       C  0.60150837  0.73069865  0.06173550     0.36400
C3206       C  0.60085302  0.72550365  0.07601386    -0.19700
C3207       C  0.60635118  0.71179228  0.07923671    -0.24900
C3208       C  0.61263017  0.70322702  0.06844246     0.27800
H3209       H  0.60844590  0.72632602  0.04003538     0.13500
N3210       N  0.59691908  0.74503972  0.05833636    -0.82200
H3211       H  0.60599894  0.70790958  0.09027048     0.18400
N3212       N  0.61851535  0.68930390  0.07189169    -0.80800
H3213       H  0.60576492  0.75068032  0.05417275     0.34000
H3214       H  0.58910443  0.74436513  0.05021395     0.38500
H3215       H  0.61722111  0.68705694  0.08288013     0.34000
H3216       H  0.61250860  0.68158151  0.06626122     0.30700
H3217       H  0.59622182  0.69530875  0.01762100     0.34000
H3218       H  0.59376839  0.69309269  0.03543649     0.30700
H3219       H  0.66274778  0.69214716  0.04659120     0.38500
H3220       H  0.66085715  0.67717819  0.03660779     0.34000
C3221       C  0.52021781  0.80234633  0.14156053    -0.19700
C3222       C  0.52191016  0.80483459  0.12654920     0.36500
C3223       C  0.53261003  0.79724725  0.11891414    -0.25700
C3224       C  0.54181445  0.78764659  0.12603816     0.02900
C3225       C  0.54068397  0.78570660  0.14104602     0.27700
C3226       C  0.52986685  0.79301585  0.14864535    -0.24800
N3227       N  0.51261627  0.81470306  0.11901707    -0.82200
H3228       H  0.53373405  0.79872054  0.10735829     0.13500
C3229       C  0.55222007  0.77903713  0.11769965     0.02900
N3230       N  0.55051992  0.77626952  0.14847288    -0.80800
H3231       H  0.52893969  0.79132652  0.16018563     0.18400
C3232       C  0.56644415  0.78392135  0.11634094    -0.25600
C3233       C  0.57705640  0.77510639  0.11010106     0.36400
C3234       C  0.57333538  0.76105833  0.10548824    -0.19700
C3235       C  0.55894409  0.75643021  0.10642175    -0.24900
C3236       C  0.54829507  0.76536845  0.11237331     0.27800
H3237       H  0.56929558  0.79450134  0.12042954     0.13500
N3238       N  0.59160186  0.78029305  0.10853535    -0.82200
H3239       H  0.55608372  0.74562053  0.10304356     0.18400
N3240       N  0.53356654  0.76054863  0.11330680    -0.80800
H3241       H  0.59253314  0.79080492  0.11252339     0.34000
H3242       H  0.59385477  0.78080868  0.09748217     0.38500
H3243       H  0.53243552  0.75033433  0.10865359     0.34000
H3244       H  0.53097542  0.75941805  0.12423573     0.30700
H3245       H  0.54840685  0.77623992  0.15956315     0.34000
H3246       H  0.54863792  0.76576440  0.14482170     0.30700
H3247       H  0.51530183  0.82510884  0.12244846     0.38500
H3248       H  0.51470907  0.81446006  0.10792282     0.34000
C3249       C  0.57163640  0.74131325  0.07874375    -0.19700
C3250       C  0.56424927  0.72822355  0.07667499     0.36500
C3251       C  0.55264204  0.72756580  0.06695401    -0.25700
C3252       C  0.54842362  0.73979145  0.05903992     0.02900
C3253       C  0.55585104  0.75296078  0.06117295     0.27700
C3254       C  0.56719803  0.75362666  0.07121280    -0.24800
N3255       N  0.56833149  0.71568969  0.08471546    -0.82200
H3256       H  0.54688103  0.71747816  0.06560965     0.13500
C3257       C  0.53633946  0.73873771  0.04847864     0.02900
N3258       N  0.55204161  0.76552238  0.05291321    -0.80800
H3259       H  0.57294694  0.76366492  0.07289906     0.18400
C3260       C  0.52489293  0.74861382  0.04933011    -0.25600
C3261       C  0.51394142  0.74880809  0.03888492     0.36400
C3262       C  0.51411668  0.73870431  0.02751637    -0.19700
C3263       C  0.52515202  0.72834083  0.02703534    -0.24900
C3264       C  0.53640367  0.72838964  0.03726189     0.27800
H3265       H  0.52455882  0.75638547  0.05806953     0.13500
N3266       N  0.50255037  0.75917902  0.03999221    -0.82200
H3267       H  0.52530118  0.72053707  0.01832151     0.18400
N3268       N  0.54808043  0.71825403  0.03605423    -0.80800
H3269       H  0.50716612  0.76947279  0.03982403     0.34000
H3270       H  0.49750921  0.75779243  0.04999948     0.38500
H3271       H  0.54649009  0.71139007  0.02723518     0.34000
H3272       H  0.55749658  0.72410910  0.03393439     0.30700
H3273       H  0.55851854  0.77429975  0.05580918     0.34000
H3274       H  0.55427594  0.76329112  0.04207253     0.30700
H3275       H  0.57098110  0.70754748  0.07736702     0.38500
H3276       H  0.55937187  0.71225436  0.09065922     0.34000
C3277       C  0.34730927  0.68297770  0.02292374    -0.19700
C3278       C  0.33848808  0.68607535  0.03487564     0.36500
C3279       C  0.34398942  0.69418050  0.04633713    -0.25700
C3280       C  0.35814015  0.69952153  0.04598283     0.02900
C3281       C  0.36707284  0.69643503  0.03399637     0.27700
C3282       C  0.36160332  0.68795141  0.02262288    -0.24800
N3283       N  0.32399960  0.68068817  0.03553033    -0.82200
H3284       H  0.33718116  0.69624082  0.05562916     0.13500
C3285       C  0.36343122  0.70794822  0.05849983     0.02900
N3286       N  0.38151867  0.70208368  0.03335828    -0.80800
H3287       H  0.36832683  0.68555515  0.01335302     0.18400
C3288       C  0.37569933  0.70317221  0.06597149    -0.25600
C3289       C  0.38051310  0.71034930  0.07840608     0.36400
C3290       C  0.37289384  0.72250921  0.08339118    -0.19700
C3291       C  0.36053147  0.72719156  0.07609440    -0.24900
C3292       C  0.35581471  0.72014649  0.06354114     0.27800
H3293       H  0.38134767  0.69364140  0.06224878     0.13500
N3294       N  0.39296028  0.70524021  0.08612691    -0.82200
H3295       H  0.35482989  0.73663382  0.07996885     0.18400
N3296       N  0.34343054  0.72538699  0.05579773    -0.80800
H3297       H  0.39737373  0.69621282  0.08100532     0.34000
H3298       H  0.38951010  0.70185105  0.09632789     0.38500
H3299       H  0.33905429  0.73441156  0.06096090     0.34000
H3300       H  0.34696824  0.72884697  0.04565062     0.30700
H3301       H  0.38662397  0.69883802  0.02382774     0.34000
H3302       H  0.38077974  0.71333071  0.03295630     0.30700
H3303       H  0.31703304  0.68948051  0.03667800     0.38500
H3304       H  0.32304050  0.67425161  0.04475195     0.34000
C3305       C  0.45809863  0.79548067  0.14783209    -0.19700
C3306       C  0.45007986  0.78507409  0.15559811     0.36500
C3307       C  0.44041264  0.77608947  0.14814525    -0.25700
C3308       C  0.43852614  0.77737123  0.13318634     0.02900
C3309       C  0.44661965  0.78758110  0.12538478     0.27700
C3310       C  0.45627640  0.79659371  0.13279717    -0.24800
N3311       N  0.45150311  0.78386935  0.17101379    -0.82200
H3312       H  0.43400643  0.76829337  0.15406673     0.13500
C3313       C  0.42730626  0.76856991  0.12606040     0.02900
N3314       N  0.44500197  0.78869813  0.10998230    -0.80800
H3315       H  0.46256294  0.80439236  0.12675889     0.18400
C3316       C  0.41525093  0.77552620  0.12014193    -0.25600
C3317       C  0.40373394  0.76758723  0.11454073     0.36400
C3318       C  0.40428223  0.75239643  0.11474220    -0.19700
C3319       C  0.41639052  0.74541110  0.12049815    -0.24900
C3320       C  0.42803984  0.75338394  0.12603346     0.27800
H3321       H  0.41462675  0.78720086  0.12025100     0.13500
N3322       N  0.39151899  0.77518966  0.10892080    -0.82200
H3323       H  0.41664750  0.73373699  0.12087321     0.18400
N3324       N  0.44053898  0.74618799  0.13173487    -0.80800
H3325       H  0.39011525  0.77216308  0.09815427     0.34000
H3326       H  0.38236548  0.77207465  0.11473692     0.38500
H3327       H  0.43935210  0.73500005  0.13092557     0.34000
H3328       H  0.44932796  0.74897781  0.12522192     0.30700
H3329       H  0.45172826  0.79677064  0.10586232     0.34000
H3330       H  0.44850532  0.77897263  0.10546795     0.30700
H3331       H  0.44496096  0.77557342  0.17498734     0.38500
H3332       H  0.44763952  0.79344660  0.17554995     0.34000
C3333       C  0.40153656  0.73841480  0.08485207    -0.19700
C3334       C  0.39794984  0.74506704  0.07162750     0.36500
C3335       C  0.40798205  0.74495736  0.06026894    -0.25700
C3336       C  0.42145461  0.73835473  0.06197034     0.02900
C3337       C  0.42509938  0.73178247  0.07517949     0.27700
C3338       C  0.41504937  0.73185316  0.08650857    -0.24800
N3339       N  0.38408302  0.75173433  0.06976930    -0.82200
H3340       H  0.40532935  0.75002301  0.05006165     0.13500
C3341       C  0.43179268  0.73861099  0.04989291     0.02900
N3342       N  0.43899685  0.72514199  0.07701979    -0.80800
H3343       H  0.41755028  0.72637907  0.09650483     0.18400
C3344       C  0.44155038  0.75007684  0.04892367    -0.25600
C3345       C  0.45185391  0.75059165  0.03783121     0.36400
C3346       C  0.45233688  0.73933501  0.02749507    -0.19700
C3347       C  0.44243075  0.72789481  0.02849215    -0.24900
C3348       C  0.43205681  0.72748958  0.03955197     0.27800
H3349       H  0.44119783  0.75856799  0.05696596     0.13500
N3350       N  0.46198052  0.76233879  0.03723519    -0.82200
H3351       H  0.44267760  0.71933733  0.02052492     0.18400
N3352       N  0.42163864  0.71600183  0.04020506    -0.80800
H3353       H  0.45999524  0.76975886  0.04550428     0.34000
H3354       H  0.47223020  0.75806570  0.03917794     0.38500
H3355       H  0.42313271  0.70881711  0.03163054     0.34000
H3356       H  0.42350298  0.71016258  0.04967404     0.30700
H3357       H  0.44003728  0.72099249  0.08746656     0.34000
H3358       H  0.43956242  0.71634004  0.06998941     0.30700
H3359       H  0.38347179  0.76044367  0.07688568     0.38500
H3360       H  0.38307357  0.75596543  0.05935195     0.34000
C3361       C  0.59778067  0.73423379  0.91142509    -0.19700
C3362       C  0.59115404  0.72106717  0.91506574     0.36500
C3363       C  0.59760708  0.71205113  0.92537165    -0.25700
C3364       C  0.61055901  0.71606523  0.93212299     0.02900
C3365       C  0.61672490  0.72967184  0.92909040     0.27700
C3366       C  0.61036210  0.73853405  0.91860896    -0.24800
N3367       N  0.57828650  0.71650482  0.90782825    -0.82200
H3368       H  0.59283023  0.70162063  0.92763341     0.13500
C3369       C  0.61832200  0.70553629  0.94131420     0.02900
N3370       N  0.62956004  0.73428683  0.93651132    -0.80800
H3371       H  0.61530392  0.74878348  0.91589925     0.18400
C3372       C  0.63252668  0.70187875  0.93756812    -0.25600
C3373       C  0.64082342  0.69287363  0.94640482     0.36400
C3374       C  0.63469567  0.68720649  0.95910478    -0.19700
C3375       C  0.62021076  0.69005724  0.96244017    -0.24900
C3376       C  0.61195795  0.69935363  0.95371047     0.27800
H3377       H  0.63725093  0.70634080  0.92783533     0.13500
N3378       N  0.65554937  0.68964095  0.94270671    -0.82200
H3379       H  0.61562345  0.68571640  0.97229232     0.18400
N3380       N  0.59738825  0.70294251  0.95764249    -0.80800
H3381       H  0.65622385  0.67854278  0.94080651     0.34000
H3382       H  0.65845488  0.69475029  0.93306857     0.38500
H3383       H  0.59436715  0.69749878  0.96705902     0.34000
H3384       H  0.59712358  0.71395713  0.96005849     0.30700
H3385       H  0.63275145  0.74451099  0.93296368     0.34000
H3386       H  0.62698226  0.73531270  0.94745563     0.30700
H3387       H  0.57031782  0.71478850  0.91563954     0.38500
H3388       H  0.58038590  0.70664885  0.90276388     0.34000
C3389       C  0.56784260  0.76792557  0.88243241    -0.19700
C3390       C  0.56568639  0.78076328  0.89030235     0.36500
C3391       C  0.55610140  0.79122259  0.88493201    -0.25700
C3392       C  0.54878927  0.78900906  0.87185813     0.02900
C3393       C  0.55057073  0.77591091  0.86430331     0.27700
C3394       C  0.56025767  0.76556578  0.86958118    -0.24800
N3395       N  0.57358367  0.78330347  0.90342379    -0.82200
H3396       H  0.55464614  0.80129116  0.89069246     0.13500
C3397       C  0.53958864  0.80054564  0.86578012     0.02900
N3398       N  0.54260294  0.77327116  0.85123632    -0.80800
H3399       H  0.56201223  0.75566300  0.86361213     0.18400
C3400       C  0.54334560  0.80651666  0.85238872    -0.25600
C3401       C  0.53381038  0.81564608  0.84499592     0.36400
C3402       C  0.52030911  0.81892184  0.85125414    -0.19700
C3403       C  0.51715127  0.81406319  0.86525642    -0.24900
C3404       C  0.52665051  0.80476078  0.87256795     0.27800
H3405       H  0.55350846  0.80352613  0.84742634     0.13500
N3406       N  0.53782988  0.82164306  0.83123913    -0.82200
H3407       H  0.50684409  0.81674958  0.87008862     0.18400
N3408       N  0.52294837  0.79909317  0.88653403    -0.80800
H3409       H  0.54859667  0.81922688  0.82887586     0.34000
H3410       H  0.53169702  0.81651983  0.82328137     0.38500
H3411       H  0.51308067  0.80330207  0.89002763     0.34000
H3412       H  0.52149463  0.78796161  0.88543989     0.30700
H3413       H  0.54517636  0.76314497  0.84698770     0.34000
H3414       H  0.53164946  0.77293443  0.85394187     0.30700
H3415       H  0.58453370  0.78396416  0.90077221     0.38500
H3416       H  0.57074077  0.79325999  0.90789483     0.34000
C3417       C  0.51443837  0.74068647  0.96395541    -0.19700
C3418       C  0.52644898  0.73132729  0.96368552     0.36500
C3419       C  0.53698719  0.73308153  0.95287555    -0.25700
C3420       C  0.53562273  0.74390400  0.94237511     0.02900
C3421       C  0.52354070  0.75308384  0.94251597     0.27700
C3422       C  0.51309785  0.75142824  0.95335346    -0.24800
N3423       N  0.52805741  0.72033994  0.97452085    -0.82200
H3424       H  0.54633225  0.72606123  0.95264657     0.13500
C3425       C  0.54695175  0.74562023  0.93127664     0.02900
N3426       N  0.52199618  0.76408454  0.93168255    -0.80800
H3427       H  0.50382940  0.75855353  0.95352730     0.18400
C3428       C  0.54397216  0.74156737  0.91700162    -0.25600
C3429       C  0.55446360  0.74306659  0.90616026     0.36400
C3430       C  0.56809565  0.74880859  0.90971471    -0.19700
C3431       C  0.57101549  0.75298782  0.92396885    -0.24900
C3432       C  0.56050942  0.75154836  0.93480321     0.27800
H3433       H  0.53348748  0.73708117  0.91438563     0.13500
N3434       N  0.55148759  0.73850787  0.89163067    -0.82200
H3435       H  0.58151349  0.75744040  0.92656112     0.18400
N3436       N  0.56347730  0.75613584  0.94933285    -0.80800
H3437       H  0.54098106  0.73446218  0.89081811     0.34000
H3438       H  0.55843887  0.72997226  0.88920223     0.38500
H3439       H  0.57397490  0.76021345  0.95012077     0.34000
H3440       H  0.55651875  0.76469308  0.95168902     0.30700
H3441       H  0.51241621  0.76983632  0.93322119     0.34000
H3442       H  0.53044770  0.77144115  0.93305099     0.30700
H3443       H  0.52939302  0.72549907  0.98447623     0.38500
H3444       H  0.53745126  0.71436089  0.97271326     0.34000
C3445       C  0.38112258  0.71973626  0.89934566    -0.19700
C3446       C  0.36745014  0.72291036  0.90516010     0.36500
C3447       C  0.36250216  0.71510338  0.91716766    -0.25700
C3448       C  0.37112778  0.70447727  0.92367327     0.02900
C3449       C  0.38490570  0.70145742  0.91793480     0.27700
C3450       C  0.38969423  0.70903190  0.90571465    -0.24800
N3451       N  0.35880020  0.73423026  0.89902987    -0.82200
H3452       H  0.35188710  0.71734495  0.92153317     0.13500
C3453       C  0.36537840  0.69643846  0.93628513     0.02900
N3454       N  0.39402823  0.69086847  0.92465206    -0.80800
H3455       H  0.40022016  0.70668696  0.90121718     0.18400
C3456       C  0.36430357  0.68134989  0.93560008    -0.25600
C3457       C  0.35782106  0.67345832  0.94681917     0.36400
C3458       C  0.35219880  0.68085857  0.95887981    -0.19700
C3459       C  0.35355459  0.69590942  0.95971642    -0.24900
C3460       C  0.36030249  0.70376466  0.94863754     0.27800
H3461       H  0.36812690  0.67576065  0.92606223     0.13500
N3462       N  0.35644867  0.65804498  0.94576167    -0.82200
H3463       H  0.34935138  0.70153460  0.96907465     0.18400
N3464       N  0.36198776  0.71914063  0.94982550    -0.80800
H3465       H  0.36117585  0.65428685  0.93622395     0.34000
H3466       H  0.34544794  0.65561515  0.94506997     0.38500
H3467       H  0.35768277  0.72286428  0.95957355     0.34000
H3468       H  0.37305444  0.72135308  0.95012735     0.30700
H3469       H  0.40378648  0.68992213  0.91906057     0.34000
H3470       H  0.39658728  0.69463473  0.93498615     0.30700
H3471       H  0.36434139  0.74394444  0.90054696     0.38500
H3472       H  0.34902986  0.73519941  0.90459676     0.34000
C3473       C  0.41170721  0.75337669  0.87079811    -0.19700
C3474       C  0.41873823  0.75277128  0.85733969     0.36500
C3475       C  0.42855328  0.76359388  0.85349607    -0.25700
C3476       C  0.43172239  0.77500433  0.86295254     0.02900
C3477       C  0.42482477  0.77556873  0.87654346     0.27700
C3478       C  0.41478935  0.76479492  0.88027228    -0.24800
N3479       N  0.41607274  0.74106144  0.84760048    -0.82200
H3480       H  0.43365441  0.76313246  0.84297338     0.13500
C3481       C  0.44200596  0.78636359  0.85816816     0.02900
N3482       N  0.42801923  0.78705710  0.88647137    -0.80800
H3483       H  0.40915013  0.76549805  0.89048223     0.18400
C3484       C  0.43767386  0.80088733  0.85812228    -0.25600
C3485       C  0.44662504  0.81171963  0.85235465     0.36400
C3486       C  0.46005051  0.80786671  0.84628855    -0.19700
C3487       C  0.46450679  0.79340884  0.84665426    -0.24900
C3488       C  0.45575511  0.78266707  0.85276234     0.27800
H3489       H  0.42708187  0.80371944  0.86218115     0.13500
N3490       N  0.44194034  0.82649778  0.85223465    -0.82200
H3491       H  0.47495668  0.79050498  0.84227304     0.18400
N3492       N  0.46075088  0.76800270  0.85349810    -0.80800
H3493       H  0.43187096  0.82750525  0.85723280     0.34000
H3494       H  0.44052490  0.82954739  0.84145640     0.38500
H3495       H  0.47107621  0.76708361  0.84903700     0.34000
H3496       H  0.46168349  0.76527416  0.86441514     0.30700
H3497       H  0.42196487  0.78593320  0.89593542     0.34000
H3498       H  0.43886216  0.78608921  0.88944222     0.30700
H3499       H  0.42589283  0.73589602  0.84556750     0.38500
H3500       H  0.41231736  0.74535990  0.83786176     0.34000
C3501       C  0.40843987  0.73734605  0.90010360    -0.19700
C3502       C  0.42207554  0.73062835  0.90061825     0.36500
C3503       C  0.43010855  0.73100995  0.91341309    -0.25700
C3504       C  0.42475083  0.73798058  0.92574111     0.02900
C3505       C  0.41112508  0.74470112  0.92529039     0.27700
C3506       C  0.40306370  0.74426708  0.91244583    -0.24800
N3507       N  0.42776789  0.72300426  0.88844024    -0.82200
H3508       H  0.44059422  0.72584766  0.91376263     0.13500
C3509       C  0.43385111  0.73869417  0.93883508     0.02900
N3510       N  0.40561097  0.75198618  0.93782935    -0.80800
H3511       H  0.39247578  0.74919599  0.91201265     0.18400
C3512       C  0.44305473  0.75052103  0.94063269    -0.25600
C3513       C  0.45245162  0.75142099  0.95251642     0.36400
C3514       C  0.45273206  0.74008380  0.96277781    -0.19700
C3515       C  0.44330657  0.72829570  0.96097999    -0.24900
C3516       C  0.43378898  0.72754258  0.94914733     0.27800
H3517       H  0.44300531  0.75901946  0.93259473     0.13500
N3518       N  0.46212049  0.76349509  0.95377598    -0.82200
H3519       H  0.44341682  0.71960338  0.96879952     0.18400
N3520       N  0.42430437  0.71538431  0.94736953    -0.80800
H3521       H  0.46143727  0.77010303  0.94465139     0.34000
H3522       H  0.45854936  0.76977806  0.96243933     0.38500
H3523       H  0.42568751  0.70803664  0.95582048     0.34000
H3524       H  0.41369348  0.71913965  0.94810293     0.30700
H3525       H  0.39552025  0.75652352  0.93561873     0.34000
H3526       H  0.40394391  0.74423893  0.94585732     0.30700
H3527       H  0.42036229  0.71504508  0.88541624     0.38500
H3528       H  0.42887712  0.73023685  0.87986949     0.34000
C3529       C  0.62779421  0.05879132  0.25119908    -0.19700
C3530       C  0.62747525  0.04388013  0.24831235     0.36500
C3531       C  0.63087074  0.03416196  0.25944411    -0.25700
C3532       C  0.63478947  0.03918937  0.27318661     0.02900
C3533       C  0.63505330  0.05408174  0.27606151     0.27700
C3534       C  0.63163151  0.06376132  0.26498378    -0.24800
N3535       N  0.62410862  0.03872396  0.23406702    -0.82200
H3536       H  0.63085560  0.02266403  0.25733565     0.13500
C3537       C  0.63939562  0.02878048  0.28427713     0.02900
N3538       N  0.63886786  0.05925972  0.29019395    -0.80800
H3539       H  0.63184217  0.07525775  0.26711124     0.18400
C3540       C  0.65406415  0.02792911  0.28778057    -0.25600
C3541       C  0.65903562  0.01790048  0.29796362     0.36400
C3542       C  0.64906386  0.00851652  0.30470473    -0.19700
C3543       C  0.63429320  0.00971431  0.30146157    -0.24900
C3544       C  0.62936181  0.01976738  0.29124294     0.27800
H3545       H  0.66165171  0.03506440  0.28244668     0.13500
N3546       N  0.67412912  0.01728390  0.30153905    -0.82200
H3547       H  0.62663283  0.00255832  0.30665018     0.18400
N3548       N  0.61426953  0.02080651  0.28779166    -0.80800
H3549       H  0.67997350  0.02483298  0.29551693     0.34000
H3550       H  0.67519360  0.02028334  0.31237473     0.38500
H3551       H  0.60831147  0.01334600  0.29380847     0.34000
H3552       H  0.61074876  0.03104416  0.29095558     0.30700
H3553       H  0.63863440  0.07053269  0.29047842     0.34000
H3554       H  0.63093328  0.05568765  0.29738586     0.30700
H3555       H  0.63221948  0.04234810  0.22710453     0.38500
H3556       H  0.62437418  0.02745289  0.23377484     0.34000
C3557       C  0.60250375  0.09011854  0.21560758    -0.19700
C3558       C  0.58892227  0.09372191  0.22142219     0.36500
C3559       C  0.57917820  0.10175850  0.21315461    -0.25700
C3560       C  0.58300289  0.10667216  0.19939413     0.02900
C3561       C  0.59654586  0.10316817  0.19351621     0.27700
C3562       C  0.60617133  0.09481276  0.20167324    -0.24800
N3563       N  0.58534487  0.09010751  0.23601424    -0.82200
H3564       H  0.56885583  0.10477934  0.21775918     0.13500
C3565       C  0.57326640  0.11668012  0.19190933     0.02900
N3566       N  0.60059697  0.10853164  0.17952785    -0.80800
H3567       H  0.61672820  0.09226935  0.19732723     0.18400
C3568       C  0.57580848  0.13149439  0.19323337    -0.25600
C3569       C  0.56630724  0.14146935  0.18710469     0.36400
C3570       C  0.55409743  0.13653429  0.17947858    -0.19700
C3571       C  0.55183708  0.12166092  0.17773476    -0.24900
C3572       C  0.56130587  0.11163402  0.18402269     0.27800
H3573       H  0.58510038  0.13531648  0.19924287     0.13500
N3574       N  0.56918139  0.15659632  0.18848417    -0.82200
H3575       H  0.54245460  0.11788468  0.17185090     0.18400
N3576       N  0.55871446  0.09640281  0.18272320    -0.80800
H3577       H  0.57932312  0.15867937  0.18398764     0.34000
H3578       H  0.56966273  0.15909570  0.19948616     0.38500
H3579       H  0.54936332  0.09448528  0.17669342     0.34000
H3580       H  0.56728452  0.09197152  0.17687701     0.30700
H3581       H  0.61103818  0.10517769  0.17687430     0.34000
H3582       H  0.59366839  0.10386267  0.17193643     0.30700
H3583       H  0.57582258  0.08404606  0.23588289     0.38500
H3584       H  0.58330366  0.09967324  0.24163401     0.34000
C3585       C  0.53700020  0.01629443  0.23175874    -0.19700
C3586       C  0.53785247  0.02839606  0.22254594     0.36500
C3587       C  0.55050583  0.03687663  0.22248622    -0.25700
C3588       C  0.56249540  0.03324833  0.23107667     0.02900
C3589       C  0.56179397  0.02079798  0.23983462     0.27700
C3590       C  0.54897811  0.01267625  0.24030962    -0.24800
N3591       N  0.52567347  0.03244256  0.21382914    -0.82200
H3592       H  0.55094129  0.04650296  0.21587011     0.13500
C3593       C  0.57548269  0.04283331  0.23127020     0.02900
N3594       N  0.57413211  0.01641592  0.24817129    -0.80800
H3595       H  0.54838368  0.00333718  0.24730099     0.18400
C3596       C  0.58058264  0.04815887  0.24454455    -0.25600
C3597       C  0.59261042  0.05741140  0.24527361     0.36400
C3598       C  0.59982431  0.06137667  0.23244226    -0.19700
C3599       C  0.59469204  0.05613081  0.21916965    -0.24900
C3600       C  0.58265146  0.04688694  0.21843133     0.27800
H3601       H  0.57494477  0.04530455  0.25438894     0.13500
N3602       N  0.59725989  0.06308621  0.25894300    -0.82200
H3603       H  0.60024356  0.05919723  0.20934445     0.18400
N3604       N  0.57776889  0.04150208  0.20471497    -0.80800
H3605       H  0.59083040  0.05911437  0.26732690     0.34000
H3606       H  0.59582624  0.07426093  0.25873679     0.38500
H3607       H  0.58412579  0.04560537  0.19633514     0.34000
H3608       H  0.57923536  0.03032279  0.20472209     0.30700
H3609       H  0.57185234  0.00704721  0.25403078     0.34000
H3610       H  0.58236820  0.01377584  0.24091893     0.30700
H3611       H  0.52437236  0.02453153  0.20589293     0.38500
H3612       H  0.52778399  0.04206705  0.20833257     0.34000
C3613       C  0.39511877  0.08825437  0.25127729    -0.19700
C3614       C  0.39148223  0.07435410  0.24639454     0.36500
C3615       C  0.38366777  0.06506522  0.25545303    -0.25700
C3616       C  0.37938122  0.06950766  0.26929780     0.02900
C3617       C  0.38303588  0.08342526  0.27421424     0.27700
C3618       C  0.39083545  0.09269005  0.26511037    -0.24800
N3619       N  0.39525190  0.06983387  0.23209924    -0.82200
H3620       H  0.38081241  0.05438753  0.25163033     0.13500
C3621       C  0.37085532  0.05957388  0.27845943     0.02900
N3622       N  0.37863553  0.08812711  0.28833813    -0.80800
H3623       H  0.39356295  0.10345510  0.26877904     0.18400
C3624       C  0.37684771  0.05437033  0.29132567    -0.25600
C3625       C  0.36927580  0.04457715  0.30011617     0.36400
C3626       C  0.35519110  0.04014396  0.29606588    -0.19700
C3627       C  0.34918407  0.04564910  0.28321637    -0.24900
C3628       C  0.35686855  0.05528066  0.27439047     0.27800
H3629       H  0.38764816  0.05772575  0.29432887     0.13500
N3630       N  0.37601470  0.03896851  0.31292068    -0.82200
H3631       H  0.33842848  0.04241048  0.27996419     0.18400
N3632       N  0.35053935  0.06076475  0.26131674    -0.80800
H3633       H  0.38608485  0.04379508  0.31458265     0.34000
H3634       H  0.37802688  0.02801607  0.31113636     0.38500
H3635       H  0.34020509  0.05646929  0.25979325     0.34000
H3636       H  0.34926165  0.07189514  0.26255329     0.30700
H3637       H  0.38227207  0.09862308  0.29032983     0.34000
H3638       H  0.36735999  0.08853024  0.28844248     0.30700
H3639       H  0.40152567  0.06050067  0.23293314     0.38500
H3640       H  0.38574582  0.06716664  0.22662680     0.34000
C3641       C  0.43156602  0.11292048  0.22012409    -0.19700
C3642       C  0.44533074  0.11208732  0.22659844     0.36500
C3643       C  0.45751356  0.11640300  0.21869303    -0.25700
C3644       C  0.45612806  0.12224992  0.20477973     0.02900
C3645       C  0.44237279  0.12291524  0.19825381     0.27700
C3646       C  0.43025684  0.11810412  0.20596713    -0.24800
N3647       N  0.44683820  0.10751459  0.24134978    -0.82200
H3648       H  0.46809876  0.11582988  0.22363981     0.13500
C3649       C  0.46890897  0.12884811  0.19772646     0.02900
N3650       N  0.44069426  0.12890576  0.18402815    -0.80800
H3651       H  0.41965446  0.11875941  0.20106476     0.18400
C3652       C  0.47280685  0.12464980  0.18370206    -0.25600
C3653       C  0.48406613  0.13158923  0.17631142     0.36400
C3654       C  0.49178389  0.14284627  0.18312595    -0.19700
C3655       C  0.48816859  0.14662079  0.19739261    -0.24900
C3656       C  0.47676193  0.13988492  0.20468974     0.27800
H3657       H  0.46691291  0.11607030  0.17836021     0.13500
N3658       N  0.48746131  0.12721603  0.16187362    -0.82200
H3659       H  0.49403942  0.15513270  0.20285028     0.18400
N3660       N  0.47289575  0.14447775  0.21901933    -0.80800
H3661       H  0.47820392  0.12848379  0.15553851     0.34000
H3662       H  0.49008814  0.11625256  0.16204996     0.38500
H3663       H  0.47984699  0.15259451  0.22265338     0.34000
H3664       H  0.46259238  0.14903860  0.21848173     0.30700
H3665       H  0.42989408  0.12848845  0.18077452     0.34000
H3666       H  0.44349274  0.13982038  0.18456451     0.30700
H3667       H  0.44159458  0.11508522  0.24786089     0.38500
H3668       H  0.45769036  0.10751653  0.24445585     0.34000
C3669       C  0.47344360  0.02503914  0.23608229    -0.19700
C3670       C  0.45916890  0.02354255  0.23102926     0.36500
C3671       C  0.44994857  0.03557078  0.23110660    -0.25700
C3672       C  0.45475343  0.04901850  0.23611570     0.02900
C3673       C  0.46907578  0.05056310  0.24104570     0.27700
C3674       C  0.47825325  0.03846799  0.24116430    -0.24800
N3675       N  0.45405632  0.00976363  0.22605289    -0.82200
H3676       H  0.43892612  0.03446702  0.22734016     0.13500
C3677       C  0.44464318  0.06139555  0.23594644     0.02900
N3678       N  0.47425488  0.06442964  0.24569333    -0.80800
H3679       H  0.48927585  0.03956420  0.24493316     0.18400
C3680       C  0.43984895  0.06733564  0.24903237    -0.25600
C3681       C  0.43009124  0.07891881  0.24916297     0.36400
C3682       C  0.42492972  0.08457337  0.23602649    -0.19700
C3683       C  0.42970581  0.07857475  0.22296338    -0.24900
C3684       C  0.43961780  0.06712944  0.22278069     0.27800
H3685       H  0.44376853  0.06301006  0.25917186     0.13500
N3686       N  0.42591192  0.08530191  0.26259692    -0.82200
H3687       H  0.42580332  0.08302938  0.21288213     0.18400
N3688       N  0.44477195  0.06141758  0.20930325    -0.80800
H3689       H  0.43524491  0.08882637  0.26787786     0.34000
H3690       H  0.42113198  0.07728795  0.26894670     0.38500
H3691       H  0.44001694  0.06682992  0.20061758     0.34000
H3692       H  0.45584738  0.06353152  0.20873324     0.30700
H3693       H  0.48504940  0.06374294  0.24892430     0.34000
H3694       H  0.47400618  0.07132467  0.23676160     0.30700
H3695       H  0.45420147  0.00269168  0.23484849     0.38500
H3696       H  0.44330470  0.01049632  0.22269443     0.34000
C3697       C  0.61343878  0.90246527  0.25108154    -0.19700
C3698       C  0.60684284  0.90232248  0.26478553     0.36500
C3699       C  0.61220694  0.91137571  0.27567023    -0.25700
C3700       C  0.62404796  0.92041752  0.27303371     0.02900
C3701       C  0.63041499  0.92076045  0.25919002     0.27700
C3702       C  0.62511932  0.91162262  0.24836518    -0.24800
N3703       N  0.59508380  0.89264021  0.26771280    -0.82200
H3704       H  0.60745385  0.91107134  0.28635874     0.13500
C3705       C  0.63014367  0.92905905  0.28496309     0.02900
N3706       N  0.64227962  0.93032924  0.25625695    -0.80800
H3707       H  0.63012872  0.91157282  0.23778758     0.18400
C3708       C  0.64466264  0.92705927  0.28868316    -0.25600
C3709       C  0.65128513  0.93582428  0.29901800     0.36400
C3710       C  0.64322996  0.94671145  0.30591687    -0.19700
C3711       C  0.62845676  0.94815214  0.30282865    -0.24900
C3712       C  0.62183051  0.93947577  0.29229593     0.27800
H3713       H  0.65096828  0.91879363  0.28332478     0.13500
N3714       N  0.66617910  0.93358124  0.30252057    -0.82200
H3715       H  0.62222811  0.95647887  0.30816960     0.18400
N3716       N  0.60685723  0.94145748  0.28873067    -0.80800
H3717       H  0.66736703  0.92297592  0.30616827     0.34000
H3718       H  0.67222525  0.93472369  0.29305382     0.38500
H3719       H  0.60229720  0.94953991  0.29514698     0.34000
H3720       H  0.60632494  0.94509319  0.27805625     0.30700
H3721       H  0.64576509  0.92918793  0.24557779     0.34000
H3722       H  0.63846942  0.94088998  0.25730172     0.30700
H3723       H  0.59902053  0.88210608  0.26687588     0.38500
H3724       H  0.59143677  0.89389944  0.27832266     0.34000
C3725       C  0.58330579  0.87391902  0.21762327    -0.19700
C3726       C  0.57609327  0.86120792  0.22204231     0.36500
C3727       C  0.56427806  0.85641560  0.21407128    -0.25700
C3728       C  0.55948997  0.86394476  0.20187245     0.02900
C3729       C  0.56656064  0.87665367  0.19750148     0.27700
C3730       C  0.57841180  0.88161043  0.20554224    -0.24800
N3731       N  0.58014106  0.85310078  0.23467596    -0.82200
H3732       H  0.55867823  0.84672533  0.21749332     0.13500
C3733       C  0.54713118  0.85801028  0.19384751     0.02900
N3734       N  0.56181604  0.88428099  0.18485486    -0.80800
H3735       H  0.58397767  0.89137736  0.20230681     0.18400
C3736       C  0.53411611  0.86573129  0.19327470    -0.25600
C3737       C  0.52158912  0.85930364  0.18761711     0.36400
C3738       C  0.52228263  0.84497310  0.18265080    -0.19700
C3739       C  0.53540439  0.83750935  0.18273298    -0.24900
C3740       C  0.54792133  0.84397767  0.18809457     0.27800
H3741       H  0.53362555  0.87651590  0.19776411     0.13500
N3742       N  0.50813878  0.86701544  0.18734768    -0.82200
H3743       H  0.53585210  0.82657374  0.17859759     0.18400
N3744       N  0.56141284  0.83631443  0.18798777    -0.80800
H3745       H  0.50950890  0.87744338  0.19143203     0.34000
H3746       H  0.50100346  0.86172710  0.19431814     0.38500
H3747       H  0.56012435  0.82607462  0.18342973     0.34000
H3748       H  0.56848826  0.84197639  0.18125537     0.30700
H3749       H  0.56821037  0.89342062  0.18313810     0.34000
H3750       H  0.56342137  0.87750846  0.17596880     0.30700
H3751       H  0.58865769  0.85787453  0.24027181     0.38500
H3752       H  0.57135789  0.85319462  0.24176679     0.34000
C3753       C  0.58454807  0.90230731  0.23464449    -0.19700
C3754       C  0.57030152  0.89883745  0.23882308     0.36500
C3755       C  0.55957046  0.90954727  0.23840869    -0.25700
C3756       C  0.56288230  0.92369858  0.23425014     0.02900
C3757       C  0.57715343  0.92726095  0.23035057     0.27700
C3758       C  0.58784201  0.91651511  0.23058646    -0.24800
N3759       N  0.56681495  0.88452819  0.24361148    -0.82200
H3760       H  0.54861825  0.90694228  0.24158991     0.13500
C3761       C  0.55141662  0.93483396  0.23458191     0.02900
N3762       N  0.58067047  0.94174642  0.22606643    -0.80800
H3763       H  0.59876538  0.91911721  0.22732788     0.18400
C3764       C  0.55225617  0.94584316  0.24489844    -0.25600
C3765       C  0.54172391  0.95670519  0.24560016     0.36400
C3766       C  0.53000215  0.95647761  0.23581353    -0.19700
C3767       C  0.52919995  0.94543352  0.22543891    -0.24900
C3768       C  0.53979516  0.93456835  0.22475405     0.27800
H3769       H  0.56126207  0.94599631  0.25236982     0.13500
N3770       N  0.54313268  0.96818275  0.25594921    -0.82200
H3771       H  0.52028163  0.94528276  0.21786733     0.18400
N3772       N  0.53889239  0.92334153  0.21407954    -0.80800
H3773       H  0.55229022  0.96668688  0.26237509     0.34000
H3774       H  0.54481858  0.97771858  0.25017392     0.38500
H3775       H  0.52966769  0.92465400  0.20770915     0.34000
H3776       H  0.54776188  0.92445597  0.20718527     0.30700
H3777       H  0.59165185  0.94260087  0.22360179     0.34000
H3778       H  0.57503557  0.94394472  0.21653371     0.30700
H3779       H  0.57254503  0.88255396  0.25311490     0.38500
H3780       H  0.55585940  0.88372781  0.24619889     0.34000
C3781       C  0.35612566  0.97819271  0.29858007    -0.19700
C3782       C  0.36456961  0.96841112  0.30667321     0.36500
C3783       C  0.37067315  0.95649755  0.29971545    -0.25700
C3784       C  0.36926564  0.95454899  0.28476839     0.02900
C3785       C  0.36176591  0.96490004  0.27650463     0.27700
C3786       C  0.35502509  0.97647553  0.28354832    -0.24800
N3787       N  0.36639603  0.97016467  0.32200048    -0.82200
H3788       H  0.37627884  0.94846396  0.30608949     0.13500
C3789       C  0.37482254  0.94105181  0.27828076     0.02900
N3790       N  0.36089295  0.96351352  0.26106150    -0.80800
H3791       H  0.34882584  0.98415880  0.27728424     0.18400
C3792       C  0.36551904  0.93252899  0.26986821    -0.25600
C3793       C  0.36997069  0.91911043  0.26450780     0.36400
C3794       C  0.38371316  0.91382161  0.26828870    -0.19700
C3795       C  0.39291659  0.92223055  0.27685993    -0.24900
C3796       C  0.38883463  0.93600754  0.28145933     0.27800
H3797       H  0.35468510  0.93628293  0.26759482     0.13500
N3798       N  0.36066827  0.91091830  0.25515998    -0.82200
H3799       H  0.40337706  0.91807036  0.27994441     0.18400
N3800       N  0.39884497  0.94489641  0.28933037    -0.80800
H3801       H  0.35093682  0.91636383  0.25345797     0.34000
H3802       H  0.36573726  0.91019904  0.24509553     0.38500
H3803       H  0.40867713  0.93955092  0.29075640     0.34000
H3804       H  0.40101984  0.95397285  0.28299035     0.30700
H3805       H  0.35492453  0.97199580  0.25662896     0.34000
H3806       H  0.37136792  0.96443807  0.25696380     0.30700
H3807       H  0.37305872  0.97913671  0.32357668     0.38500
H3808       H  0.37196857  0.96140216  0.32640061     0.34000
C3809       C  0.41340302  0.87715783  0.24312547    -0.19700
C3810       C  0.42009374  0.86382623  0.24641252     0.36500
C3811       C  0.42928644  0.85752302  0.23621523    -0.25700
C3812       C  0.43250241  0.86443811  0.22311843     0.02900
C3813       C  0.42618990  0.87792066  0.22003814     0.27700
C3814       C  0.41652805  0.88400460  0.22997303    -0.24800
N3815       N  0.41797169  0.85642048  0.25991044    -0.82200
H3816       H  0.43405173  0.84711720  0.23859425     0.13500
C3817       C  0.44238339  0.85727235  0.21274833     0.02900
N3818       N  0.42957625  0.88534546  0.20683454    -0.80800
H3819       H  0.41116672  0.89401584  0.22727157     0.18400
C3820       C  0.43775512  0.85468425  0.19853111    -0.25600
C3821       C  0.44659855  0.84731745  0.18864978     0.36400
C3822       C  0.46015766  0.84216705  0.19322828    -0.19700
C3823       C  0.46480468  0.84479776  0.20739894    -0.24900
C3824       C  0.45618919  0.85257234  0.21712041     0.27800
H3825       H  0.42711600  0.85822110  0.19521314     0.13500
N3826       N  0.44177201  0.84480984  0.17410745    -0.82200
H3827       H  0.47537615  0.84109196  0.21076597     0.18400
N3828       N  0.46145195  0.85588508  0.23135306    -0.80800
H3829       H  0.43158965  0.84938354  0.17246331     0.34000
H3830       H  0.44055967  0.83367551  0.17277311     0.38500
H3831       H  0.47181433  0.85168216  0.23284680     0.34000
H3832       H  0.46239188  0.86710063  0.23211074     0.30700
H3833       H  0.42393961  0.89509444  0.20620141     0.34000
H3834       H  0.44054505  0.88798218  0.20712837     0.30700
H3835       H  0.41190838  0.86254583  0.26713894     0.38500
H3836       H  0.42809297  0.85526299  0.26476910     0.34000
C3837       C  0.41251986  0.90860135  0.25362620    -0.19700
C3838       C  0.42541317  0.90887042  0.26158941     0.36500
C3839       C  0.43543408  0.92001015  0.25933231    -0.25700
C3840       C  0.43273310  0.93090537  0.24915318     0.02900
C3841       C  0.41965668  0.93078425  0.24132749     0.27700
C3842       C  0.40962873  0.91963531  0.24370131    -0.24800
N3843       N  0.42805647  0.89807700  0.27231406    -0.82200
H3844       H  0.44539507  0.92011563  0.26546778     0.13500
C3845       C  0.44388731  0.94210115  0.24646902     0.02900
N3846       N  0.41661203  0.94203162  0.23109784    -0.80800
H3847       H  0.39949991  0.91949213  0.23785805     0.18400
C3848       C  0.45093069  0.94240216  0.23309040    -0.25600
C3849       C  0.46197243  0.95243613  0.23019990     0.36400
C3850       C  0.46620877  0.96236258  0.24107046    -0.19700
C3851       C  0.45889088  0.96212930  0.25441496    -0.24900
C3852       C  0.44773697  0.95217568  0.25717930     0.27800
H3853       H  0.44788500  0.93461359  0.22490503     0.13500
N3854       N  0.46914785  0.95217842  0.21643856    -0.82200
H3855       H  0.46189004  0.96974328  0.26277048     0.18400
N3856       N  0.44031937  0.95221077  0.27081948    -0.80800
H3857       H  0.46552712  0.94348612  0.21021255     0.34000
H3858       H  0.46606138  0.96147688  0.21085620     0.38500
H3859       H  0.44443806  0.96027967  0.27755310     0.34000
H3860       H  0.42952800  0.95484889  0.26883207     0.30700
H3861       H  0.40657448  0.94032619  0.22622045     0.34000
H3862       H  0.41581801  0.95170950  0.23684257     0.30700
H3863       H  0.42937881  0.90325873  0.28225928     0.38500
H3864       H  0.43774773  0.89290933  0.26975431     0.34000
C3865       C  0.30789322  0.03983106  0.63544200    -0.19700
C3866       C  0.29674033  0.04725884  0.64280117     0.36500
C3867       C  0.28698198  0.05575864  0.63491848    -0.25700
C3868       C  0.28821993  0.05714873  0.61993160     0.02900
C3869       C  0.29937931  0.04998621  0.61254811     0.27700
C3870       C  0.30915565  0.04141745  0.62037917    -0.24800
N3871       N  0.29542736  0.04629930  0.65824542    -0.82200
H3872       H  0.27845344  0.06150262  0.64049149     0.13500
C3873       C  0.27811077  0.06676151  0.61225190     0.02900
N3874       N  0.30070698  0.05147459  0.59715172    -0.80800
H3875       H  0.31758589  0.03570045  0.61464342     0.18400
C3876       C  0.28231216  0.08100198  0.60956505    -0.25600
C3877       C  0.27285870  0.09081233  0.60306547     0.36400
C3878       C  0.25872878  0.08623200  0.59932896    -0.19700
C3879       C  0.25467003  0.07184195  0.60168177    -0.24900
C3880       C  0.26424297  0.06203870  0.60818805     0.27800
H3881       H  0.29302675  0.08455531  0.61266054     0.13500
N3882       N  0.27804816  0.10520246  0.60036490    -0.82200
H3883       H  0.24385956  0.06838537  0.59883304     0.18400
N3884       N  0.25985440  0.04744422  0.61104641    -0.80800
H3885       H  0.28699738  0.10436362  0.59353690     0.34000
H3886       H  0.27053459  0.11138233  0.59472142     0.38500
H3887       H  0.24924616  0.04575383  0.60757445     0.34000
H3888       H  0.26638627  0.04064726  0.60485339     0.30700
H3889       H  0.30953722  0.04557237  0.59335378     0.34000
H3890       H  0.29151398  0.04690163  0.59245812     0.30700
H3891       H  0.30459773  0.05111495  0.66274058     0.38500
H3892       H  0.28656210  0.05224620  0.66189136     0.34000
C3893       C  0.18590650  0.14883604  0.51297897    -0.19700
C3894       C  0.19715018  0.15462519  0.52152743     0.36500
C3895       C  0.20423628  0.14582365  0.53153682    -0.25700
C3896       C  0.20031435  0.13135675  0.53325625     0.02900
C3897       C  0.18934206  0.12537572  0.52465111     0.27700
C3898       C  0.18219939  0.13418854  0.51458718    -0.24800
N3899       N  0.20117848  0.16950813  0.52042812    -0.82200
H3900       H  0.21267632  0.15039216  0.53824352     0.13500
C3901       C  0.20750103  0.12293712  0.54464699     0.02900
N3902       N  0.18543549  0.11046060  0.52629441    -0.80800
H3903       H  0.17369160  0.12958833  0.50800790     0.18400
C3904       C  0.20077107  0.12164016  0.55811944    -0.25600
C3905       C  0.20819055  0.11574185  0.56994019     0.36400
C3906       C  0.22266823  0.11134282  0.56821397    -0.19700
C3907       C  0.22912716  0.11206161  0.55450817    -0.24900
C3908       C  0.22158077  0.11766658  0.54263595     0.27800
H3909       H  0.18987425  0.12565828  0.55949349     0.13500
N3910       N  0.20118465  0.11439066  0.58372423    -0.82200
H3911       H  0.24025415  0.10876033  0.55316377     0.18400
N3912       N  0.22826777  0.11849166  0.52865370    -0.80800
H3913       H  0.19057897  0.11819847  0.58317461     0.34000
H3914       H  0.20053275  0.10339082  0.58613464     0.38500
H3915       H  0.23869145  0.11419038  0.52900915     0.34000
H3916       H  0.22232497  0.11192197  0.52165365     0.30700
H3917       H  0.17708955  0.10775198  0.51918989     0.34000
H3918       H  0.19436215  0.10425639  0.52328355     0.30700
H3919       H  0.19980993  0.17429102  0.53056343     0.38500
H3920       H  0.21213878  0.17000965  0.51777937     0.34000
C3921       C  0.24729682  0.03440924  0.51224688    -0.19700
C3922       C  0.24010301  0.03066190  0.52511204     0.36500
C3923       C  0.23931770  0.04074526  0.53637449    -0.25700
C3924       C  0.24544375  0.05452244  0.53493692     0.02900
C3925       C  0.25269296  0.05822780  0.52202952     0.27700
C3926       C  0.25375122  0.04800294  0.51087923    -0.24800
N3927       N  0.23383924  0.01655310  0.52674556    -0.82200
H3928       H  0.23397421  0.03783702  0.54636943     0.13500
C3929       C  0.24415610  0.06490325  0.54706946     0.02900
N3930       N  0.25869625  0.07241736  0.52020891    -0.80800
H3931       H  0.25926528  0.05076464  0.50093211     0.18400
C3932       C  0.25664828  0.07129942  0.55278596    -0.25600
C3933       C  0.25578700  0.08150166  0.56396335     0.36400
C3934       C  0.24224653  0.08469576  0.57013815    -0.19700
C3935       C  0.22980445  0.07801239  0.56465687    -0.24900
C3936       C  0.23055788  0.06847227  0.55292248     0.27800
H3937       H  0.26708240  0.06854711  0.54828286     0.13500
N3938       N  0.26850361  0.08900350  0.56868916    -0.82200
H3939       H  0.21940804  0.08066581  0.56929487     0.18400
N3940       N  0.21756830  0.06267906  0.54669161    -0.80800
H3941       H  0.27758002  0.08545278  0.56300606     0.34000
H3942       H  0.26716355  0.09991287  0.56616661     0.38500
H3943       H  0.20848386  0.06644884  0.55222221     0.34000
H3944       H  0.21679200  0.06663831  0.53614541     0.30700
H3945       H  0.26366353  0.07337171  0.51011491     0.34000
H3946       H  0.25014175  0.07976782  0.52031056     0.30700
H3947       H  0.24224646  0.00903446  0.52649968     0.38500
H3948       H  0.22890291  0.01554091  0.53684874     0.34000
C3949       C  0.30848234  0.04054913  0.33909995    -0.19700
C3950       C  0.30556661  0.03997490  0.35403646     0.36500
C3951       C  0.29792092  0.05131627  0.36050201    -0.25700
C3952       C  0.29315892  0.06306750  0.35226557     0.02900
C3953       C  0.29606956  0.06362421  0.33734480     0.27700
C3954       C  0.30368656  0.05228928  0.33088135    -0.24800
N3955       N  0.31013510  0.02778311  0.36247428    -0.82200
H3956       H  0.29554312  0.05097397  0.37195836     0.13500
C3957       C  0.28459490  0.07447615  0.35925453     0.02900
N3958       N  0.29118736  0.07564830  0.32884555    -0.80800
H3959       H  0.30604472  0.05267772  0.31942194     0.18400
C3960       C  0.29005291  0.08856396  0.35975135    -0.25600
C3961       C  0.28188396  0.09979572  0.36574215     0.36400
C3962       C  0.26800295  0.09679403  0.37123888    -0.19700
C3963       C  0.26258757  0.08267202  0.37072174    -0.24900
C3964       C  0.27079249  0.07144049  0.36483838     0.27800
H3965       H  0.30069747  0.09076307  0.35542123     0.13500
N3966       N  0.28761402  0.11420170  0.36630465    -0.82200
H3967       H  0.25177011  0.08045037  0.37453910     0.18400
N3968       N  0.26507757  0.05702768  0.36421326    -0.80800
H3969       H  0.29791192  0.11457845  0.36169983     0.34000
H3970       H  0.28882435  0.11697141  0.37718440     0.38500
H3971       H  0.25481903  0.05660197  0.36890077     0.34000
H3972       H  0.26378151  0.05432608  0.35332526     0.30700
H3973       H  0.29433768  0.07444946  0.31806909     0.34000
H3974       H  0.27990287  0.07554110  0.32893977     0.30700
H3975       H  0.30459970  0.01872212  0.35864190     0.38500
H3976       H  0.30711868  0.02907090  0.37327977     0.34000
C3977       C  0.23278691  0.12358318  0.40146557    -0.19700
C3978       C  0.23693691  0.12620908  0.41595401     0.36500
C3979       C  0.22646697  0.13072606  0.42587073    -0.25700
C3980       C  0.21211566  0.13281705  0.42158009     0.02900
C3981       C  0.20788963  0.12969763  0.40734108     0.27700
C3982       C  0.21830777  0.12515232  0.39737771    -0.24800
N3983       N  0.25165762  0.12530664  0.42080029    -0.82200
H3984       H  0.22967064  0.13326245  0.43684285     0.13500
C3985       C  0.20190126  0.13956826  0.43170492     0.02900
N3986       N  0.19308535  0.13145154  0.40304927    -0.80800
H3987       H  0.21518273  0.12299825  0.38630265     0.18400
C3988       C  0.19808495  0.15402812  0.42951703    -0.25600
C3989       C  0.18902948  0.16119015  0.43929384     0.36400
C3990       C  0.18369839  0.15365156  0.45137368    -0.19700
C3991       C  0.18704024  0.13901077  0.45323749    -0.24900
C3992       C  0.19624677  0.13189459  0.44352716     0.27800
H3993       H  0.20242665  0.15978354  0.42029867     0.13500
N3994       N  0.18528268  0.17607621  0.43709303    -0.82200
H3995       H  0.18293882  0.13331064  0.46259823     0.18400
N3996       N  0.20011972  0.11704847  0.44573149    -0.80800
H3997       H  0.19014756  0.18004141  0.42770792     0.34000
H3998       H  0.17413340  0.17656242  0.43539953     0.38500
H3999       H  0.19512797  0.11300214  0.45501402     0.34000
H4000       H  0.19604765  0.11113102  0.43702100     0.30700
H4001       H  0.19177195  0.12877346  0.39215842     0.34000
H4002       H  0.18693376  0.12405754  0.40895618     0.30700
H4003       H  0.25876613  0.12303817  0.41237866     0.38500
H4004       H  0.25231495  0.11676141  0.42813789     0.34000
C4005       C  0.24811981  0.03660760  0.44885672    -0.19700
C4006       C  0.23803429  0.04798122  0.44974210     0.36500
C4007       C  0.23844703  0.05912367  0.43944651    -0.25700
C4008       C  0.24842033  0.05893737  0.42801557     0.02900
C4009       C  0.25836776  0.04743017  0.42702958     0.27700
C4010       C  0.25824984  0.03652225  0.43758604    -0.24800
N4011       N  0.22765805  0.04838086  0.46128230    -0.82200
H4012       H  0.23100752  0.06808947  0.44037877     0.13500
C4013       C  0.24878412  0.07123133  0.41762547     0.02900
N4014       N  0.26852581  0.04685944  0.41530188    -0.80800
H4015       H  0.26596447  0.02776885  0.43689296     0.18400
C4016       C  0.26186714  0.07871277  0.41572163    -0.25600
C4017       C  0.26279197  0.09067275  0.40650235     0.36400
C4018       C  0.25037063  0.09568312  0.39941111    -0.19700
C4019       C  0.23723985  0.08847594  0.40144587    -0.24900
C4020       C  0.23632943  0.07605796  0.41006056     0.27800
H4021       H  0.27144389  0.07530437  0.42150534     0.13500
N4022       N  0.27632461  0.09785199  0.40447639    -0.82200
H4023       H  0.22774654  0.09216935  0.39570636     0.18400
N4024       N  0.22274959  0.06850978  0.41046562    -0.80800
H4025       H  0.28369546  0.09033346  0.40042532     0.34000
H4026       H  0.28003207  0.10128524  0.41457201     0.38500
H4027       H  0.22000473  0.06588571  0.39982836     0.34000
H4028       H  0.22364729  0.05862572  0.41574298     0.30700
H4029       H  0.27512691  0.03776017  0.41619347     0.34000
H4030       H  0.26264929  0.04568077  0.40573274     0.30700
H4031       H  0.23334120  0.04965678  0.47095884     0.38500
H4032       H  0.22094113  0.05738186  0.46027753     0.34000
C4033       C  0.27112353  0.92610621  0.59647739    -0.19700
C4034       C  0.28583111  0.92408676  0.59954354     0.36500
C4035       C  0.29395217  0.93553995  0.60509837    -0.25700
C4036       C  0.28746004  0.94890013  0.60784785     0.02900
C4037       C  0.27292718  0.95116341  0.60400170     0.27700
C4038       C  0.26485281  0.93973750  0.59823532    -0.24800
N4039       N  0.29244368  0.91032086  0.59724147    -0.82200
H4040       H  0.30516897  0.93379822  0.60792790     0.13500
C4041       C  0.29566588  0.95983257  0.61599100     0.02900
N4042       N  0.26630605  0.96493246  0.60627862    -0.80800
H4043       H  0.25351857  0.94131509  0.59580471     0.18400
C4044       C  0.30818237  0.96581678  0.61000860    -0.25600
C4045       C  0.31658746  0.97566092  0.61787851     0.36400
C4046       C  0.31244026  0.97953687  0.63208315    -0.19700
C4047       C  0.29993091  0.97331014  0.63802224    -0.24900
C4048       C  0.29160390  0.96349303  0.63014188     0.27800
H4049       H  0.31144409  0.96281895  0.59917435     0.13500
N4050       N  0.32925728  0.98164459  0.61133921    -0.82200
H4051       H  0.29654813  0.97598825  0.64889590     0.18400
N4052       N  0.27920130  0.95695509  0.63667475    -0.80800
H4053       H  0.33610885  0.97314563  0.60850892     0.34000
H4054       H  0.32616385  0.98693027  0.60185695     0.38500
H4055       H  0.28256777  0.95156764  0.64600235     0.34000
H4056       H  0.27212297  0.96517167  0.63977057     0.30700
H4057       H  0.26245765  0.96863670  0.59633492     0.34000
H4058       H  0.25744149  0.96347695  0.61311480     0.30700
H4059       H  0.29667507  0.90677494  0.60708609     0.38500
H4060       H  0.30102415  0.91172405  0.59004276     0.34000
C4061       C  0.20166693  0.85023163  0.51881769    -0.19700
C4062       C  0.20260035  0.86524138  0.51651153     0.36500
C4063       C  0.20927488  0.87391418  0.52698072    -0.25700
C4064       C  0.21491441  0.86780518  0.53960802     0.02900
C4065       C  0.21383805  0.85283809  0.54198617     0.27700
C4066       C  0.20726517  0.84415369  0.53148559    -0.24800
N4067       N  0.19706617  0.87153271  0.50344142    -0.82200
H4068       H  0.21023971  0.88543824  0.52526174     0.13500
C4069       C  0.22252455  0.87708535  0.55001778     0.02900
N4070       N  0.21953304  0.84655693  0.55498937    -0.80800
H4071       H  0.20642023  0.83261894  0.53320626     0.18400
C4072       C  0.21645437  0.87940419  0.56366785    -0.25600
C4073       C  0.22392221  0.88732571  0.57419149     0.36400
C4074       C  0.23769729  0.89292114  0.57091876    -0.19700
C4075       C  0.24356325  0.89091422  0.55710766    -0.24900
C4076       C  0.23611564  0.88296691  0.54660633     0.27800
H4077       H  0.20596345  0.87484921  0.56613643     0.13500
N4078       N  0.21766041  0.88962944  0.58820628    -0.82200
H4079       H  0.25425179  0.89497206  0.55471010     0.18400
N4080       N  0.24245034  0.88044818  0.53265513    -0.80800
H4081       H  0.21599853  0.90071872  0.58940262     0.34000
H4082       H  0.20750809  0.88473797  0.58887119     0.38500
H4083       H  0.25248557  0.88555814  0.53187602     0.34000
H4084       H  0.24438996  0.86937645  0.53173051     0.30700
H4085       H  0.21772465  0.83542317  0.55512520     0.34000
H4086       H  0.23072347  0.84802040  0.55488202     0.30700
H4087       H  0.20313928  0.86747524  0.49483285     0.38500
H4088       H  0.19860179  0.88270750  0.50347218     0.34000
C4089       C  0.25388419  0.92188783  0.56860288    -0.19700
C4090       C  0.26632249  0.92451319  0.56026959     0.36500
C4091       C  0.26568850  0.93448510  0.54885537    -0.25700
C4092       C  0.25286318  0.94192477  0.54572780     0.02900
C4093       C  0.24039345  0.93920317  0.55407707     0.27700
C4094       C  0.24100449  0.92905808  0.56533091    -0.24800
N4095       N  0.27949108  0.91697996  0.56344356    -0.82200
H4096       H  0.27520516  0.93646321  0.54234697     0.13500
C4097       C  0.25262898  0.95261529  0.53376594     0.02900
N4098       N  0.22726294  0.94696356  0.55126515    -0.80800
H4099       H  0.23153019  0.92695093  0.57185425     0.18400
C4100       C  0.24265492  0.95092810  0.52248791    -0.25600
C4101       C  0.24161164  0.96114321  0.51131489     0.36400
C4102       C  0.25103689  0.97315123  0.51124442    -0.19700
C4103       C  0.26130611  0.97458549  0.52231832    -0.24900
C4104       C  0.26206945  0.96456246  0.53368153     0.27800
H4105       H  0.23555273  0.94163400  0.52249352     0.13500
N4106       N  0.23131707  0.95909245  0.49987221    -0.82200
H4107       H  0.26851296  0.98379895  0.52231732     0.18400
N4108       N  0.27220322  0.96660124  0.54526931    -0.80800
H4109       H  0.22620698  0.94908343  0.50088501     0.34000
H4110       H  0.22321537  0.96681839  0.50118335     0.38500
H4111       H  0.27837601  0.97589442  0.54357089     0.34000
H4112       H  0.26628885  0.96833194  0.55472835     0.30700
H4113       H  0.21911341  0.94367988  0.55835250     0.34000
H4114       H  0.22922841  0.95785982  0.55342948     0.30700
H4115       H  0.27767788  0.90599270  0.56166976     0.38500
H4116       H  0.28766435  0.92011479  0.55631817     0.34000
C4117       C  0.27078603  0.91711269  0.36941091    -0.19700
C4118       C  0.26418489  0.93078269  0.36841394     0.36500
C4119       C  0.27199518  0.94253006  0.36284534    -0.25700
C4120       C  0.28623590  0.94082465  0.35799389     0.02900
C4121       C  0.29275113  0.92710863  0.35860786     0.27700
C4122       C  0.28498149  0.91540680  0.36437039    -0.24800
N4123       N  0.24944031  0.93270534  0.37261097    -0.82200
H4124       H  0.26686474  0.95300793  0.36213891     0.13500
C4125       C  0.29401514  0.95333680  0.35170518     0.02900
N4126       N  0.30715607  0.92510662  0.35320256    -0.80800
H4127       H  0.29002533  0.90488151  0.36494890     0.18400
C4128       C  0.30576301  0.95936879  0.35909873    -0.25600
C4129       C  0.31347748  0.97115975  0.35335210     0.36400
C4130       C  0.30949279  0.97686175  0.33969714    -0.19700
C4131       C  0.29760193  0.97074236  0.33243428    -0.24900
C4132       C  0.28987747  0.95907199  0.33827002     0.27800
H4133       H  0.30883585  0.95490234  0.36946739     0.13500
N4134       N  0.32528527  0.97726489  0.36136846    -0.82200
H4135       H  0.29438434  0.97492024  0.32199935     0.18400
N4136       N  0.27794372  0.95286707  0.33051367    -0.80800
H4137       H  0.32708409  0.97145873  0.37088085     0.34000
H4138       H  0.32220430  0.98763846  0.36454574     0.38500
H4139       H  0.27620788  0.95836129  0.32081047     0.34000
H4140       H  0.28078096  0.94230374  0.32775644     0.30700
H4141       H  0.31038422  0.91437624  0.35444700     0.34000
H4142       H  0.30694577  0.92713018  0.34209291     0.30700
H4143       H  0.24906525  0.94073443  0.38052033     0.38500
H4144       H  0.24370254  0.93641829  0.36361547     0.34000
C4145       C  0.24389680  0.88325644  0.40216812    -0.19700
C4146       C  0.24957212  0.88359879  0.41630752     0.36500
C4147       C  0.24209999  0.87670778  0.42760868    -0.25700
C4148       C  0.22907758  0.86942843  0.42496998     0.02900
C4149       C  0.22340759  0.86904537  0.41086310     0.27700
C4150       C  0.23087532  0.87594386  0.39961325    -0.24800
N4151       N  0.26313461  0.89044533  0.41914547    -0.82200
H4152       H  0.24654658  0.87689486  0.43843276     0.13500
C4153       C  0.22147640  0.86187169  0.43685882     0.02900
N4154       N  0.21012479  0.86152759  0.40803362    -0.80800
H4155       H  0.22654315  0.87558516  0.38874731     0.18400
C4156       C  0.20887239  0.86792281  0.44257885    -0.25600
C4157       C  0.20040623  0.86041193  0.45272877     0.36400
C4158       C  0.20474594  0.84648790  0.45736603    -0.19700
C4159       C  0.21764603  0.84065834  0.45178121    -0.24900
C4160       C  0.22596957  0.84815090  0.44152249     0.27800
H4161       H  0.20546557  0.87845855  0.43883367     0.13500
N4162       N  0.18753077  0.86699314  0.45833621    -0.82200
H4163       H  0.22119070  0.83008370  0.45525639     0.18400
N4164       N  0.23886337  0.84181095  0.43566476    -0.80800
H4165       H  0.18655796  0.87760297  0.45464008     0.34000
H4166       H  0.17873416  0.86137648  0.45403342     0.38500
H4167       H  0.24075253  0.83170149  0.44029032     0.34000
H4168       H  0.23711419  0.84003402  0.42464917     0.30700
H4169       H  0.20734131  0.86235581  0.39712308     0.34000
H4170       H  0.21188959  0.85057805  0.41007825     0.30700
H4171       H  0.26146534  0.89840221  0.42697456     0.38500
H4172       H  0.27013188  0.88273832  0.42348179     0.34000
C4173       C  0.25536409  0.91472807  0.39890636    -0.19700
C4174       C  0.24186122  0.91888154  0.40456711     0.36500
C4175       C  0.24119564  0.93016737  0.41464693    -0.25700
C4176       C  0.25366329  0.93780862  0.41861057     0.02900
C4177       C  0.26710816  0.93390911  0.41260368     0.27700
C4178       C  0.26784659  0.92219019  0.40308162    -0.24800
N4179       N  0.22888327  0.91187170  0.39977431    -0.82200
H4180       H  0.23089488  0.93313786  0.41931393     0.13500
C4181       C  0.25257714  0.94975815  0.42918932     0.02900
N4182       N  0.27990260  0.94200736  0.41603495    -0.80800
H4183       H  0.27817315  0.91896280  0.39866659     0.18400
C4184       C  0.26133863  0.94941805  0.44153232    -0.25600
C4185       C  0.26115839  0.96072549  0.45157723     0.36400
C4186       C  0.25168945  0.97244739  0.44940076    -0.19700
C4187       C  0.24252594  0.97255889  0.43734324    -0.24900
C4188       C  0.24302689  0.96142618  0.42706442     0.27800
H4189       H  0.26841300  0.94028150  0.44329118     0.13500
N4190       N  0.27012797  0.96003996  0.46423992    -0.82200
H4191       H  0.23519482  0.98152953  0.43578679     0.18400
N4192       N  0.23404589  0.96200932  0.41441257    -0.80800
H4193       H  0.27546762  0.95012274  0.46477910     0.34000
H4194       H  0.27820279  0.96783596  0.46312256     0.38500
H4195       H  0.22760432  0.97126712  0.41454066     0.34000
H4196       H  0.24082665  0.96290402  0.40543412     0.30700
H4197       H  0.28887826  0.93772108  0.41070448     0.34000
H4198       H  0.27848677  0.95245564  0.41203313     0.30700
H4199       H  0.22769221  0.91403533  0.38875780     0.38500
H4200       H  0.21985609  0.91623367  0.40494694     0.34000
C4201       C  0.10801878  0.72632016  0.61269702    -0.19700
C4202       C  0.11166835  0.71280335  0.61856595     0.36500
C4203       C  0.10099381  0.70426694  0.62500773    -0.25700
C4204       C  0.08662891  0.70895912  0.62567210     0.02900
C4205       C  0.08284448  0.72238180  0.61951469     0.27700
C4206       C  0.09362104  0.73096918  0.61311724    -0.24800
N4207       N  0.12621454  0.70763621  0.61783922    -0.82200
H4208       H  0.10399080  0.69399753  0.62972147     0.13500
C4209       C  0.07583757  0.69988182  0.63328894     0.02900
N4210       N  0.06811515  0.72723286  0.61984951    -0.80800
H4211       H  0.09083531  0.74141808  0.60869026     0.18400
C4212       C  0.06834105  0.70564019  0.64510680    -0.25600
C4213       C  0.05812876  0.69740265  0.65273767     0.36400
C4214       C  0.05557357  0.68290375  0.64862044    -0.19700
C4215       C  0.06331972  0.67712388  0.63689739    -0.24900
C4216       C  0.07332502  0.68546867  0.62914434     0.27800
H4217       H  0.07043120  0.71668107  0.64833967     0.13500
N4218       N  0.05020882  0.70385521  0.66442198    -0.82200
H4219       H  0.06144863  0.66606182  0.63361827     0.18400
N4220       N  0.08083109  0.67942199  0.61697490    -0.80800
H4221       H  0.05375732  0.71439877  0.66630824     0.34000
H4222       H  0.03943484  0.70466924  0.66115645     0.38500
H4223       H  0.07782820  0.66866333  0.61538802     0.34000
H4224       H  0.07755888  0.68507615  0.60777193     0.30700
H4225       H  0.06717400  0.73735403  0.61495726     0.34000
H4226       H  0.06201507  0.72006017  0.61362461     0.30700
H4227       H  0.12617157  0.69785143  0.61222383     0.38500
H4228       H  0.12975183  0.70562238  0.62837077     0.34000
C4229       C  0.13549256  0.75958340  0.58044844    -0.19700
C4230       C  0.13786442  0.75334870  0.56679916     0.36500
C4231       C  0.14272855  0.76197678  0.55536367    -0.25700
C4232       C  0.14525277  0.77674921  0.55737776     0.02900
C4233       C  0.14278230  0.78306822  0.57099242     0.27700
C4234       C  0.13794701  0.77437860  0.58245185    -0.24800
N4235       N  0.13583884  0.73818354  0.56466072    -0.82200
H4236       H  0.14479732  0.75709307  0.54493146     0.13500
C4237       C  0.15141784  0.78524657  0.54538057     0.02900
N4238       N  0.14538491  0.79820519  0.57313471    -0.80800
H4239       H  0.13615262  0.77911322  0.59300088     0.18400
C4240       C  0.14264406  0.79480274  0.53762819    -0.25600
C4241       C  0.14819498  0.80276179  0.52591751     0.36400
C4242       C  0.16294499  0.80128775  0.52214573    -0.19700
C4243       C  0.17163658  0.79169355  0.53009741    -0.24900
C4244       C  0.16603094  0.78368456  0.54163975     0.27800
H4245       H  0.13137781  0.79584742  0.54059344     0.13500
N4246       N  0.13884926  0.81209413  0.51779121    -0.82200
H4247       H  0.18294763  0.79048193  0.52740368     0.18400
N4248       N  0.17511079  0.77395653  0.54962222    -0.80800
H4249       H  0.12845830  0.81212936  0.52219864     0.34000
H4250       H  0.13788614  0.80773797  0.50741984     0.38500
H4251       H  0.18558207  0.77392927  0.54540943     0.34000
H4252       H  0.17589627  0.77787848  0.56018104     0.30700
H4253       H  0.14293271  0.80117162  0.58374868     0.34000
H4254       H  0.15644094  0.80001532  0.57175740     0.30700
H4255       H  0.12827267  0.73678901  0.55639518     0.38500
H4256       H  0.14563141  0.73379100  0.56118887     0.34000
C4257       C  0.05109711  0.74081873  0.53078557    -0.19700
C4258       C  0.04902269  0.74665943  0.54467956     0.36500
C4259       C  0.06048047  0.74651413  0.55461249    -0.25700
C4260       C  0.07399821  0.74081474  0.55086635     0.02900
C4261       C  0.07603493  0.73483684  0.53699046     0.27700
C4262       C  0.06446762  0.73474501  0.52711887    -0.24800
N4263       N  0.03515347  0.75227005  0.54879475    -0.82200
H4264       H  0.05889563  0.75088994  0.56534965     0.13500
C4265       C  0.08587443  0.74134435  0.56163093     0.02900
N4266       N  0.08986975  0.72911169  0.53293432    -0.80800
H4267       H  0.06596001  0.73023286  0.51642432     0.18400
C4268       C  0.09217048  0.72847034  0.56651801    -0.25600
C4269       C  0.10306399  0.72866300  0.57706016     0.36400
C4270       C  0.10762962  0.74188985  0.58297936    -0.19700
C4271       C  0.10139157  0.75475111  0.57804015    -0.24900
C4272       C  0.09066590  0.75463799  0.56732300     0.27800
H4273       H  0.08857705  0.71822883  0.56216279     0.13500
N4274       N  0.10973284  0.71546320  0.58147774    -0.82200
H4275       H  0.10497535  0.76491137  0.58257076     0.18400
N4276       N  0.08468045  0.76795579  0.56210304    -0.80800
H4277       H  0.11418469  0.71056148  0.57233991     0.34000
H4278       H  0.10168321  0.70865712  0.58551720     0.38500
H4279       H  0.08934956  0.77674945  0.56742189     0.34000
H4280       H  0.08748416  0.76891353  0.55120753     0.30700
H4281       H  0.08956243  0.72512947  0.52237351     0.34000
H4282       H  0.09725031  0.73765233  0.53295278     0.30700
H4283       H  0.03526093  0.75556694  0.55959422     0.38500
H4284       H  0.03324225  0.76153072  0.54265528     0.34000
C4285       C  0.09432843  0.71864949  0.38248845    -0.19700
C4286       C  0.08894941  0.72287332  0.36887360     0.36500
C4287       C  0.07649564  0.71621323  0.36338353    -0.25700
C4288       C  0.06913553  0.70567297  0.37136945     0.02900
C4289       C  0.07416810  0.70184552  0.38520635     0.27700
C4290       C  0.08690618  0.70816288  0.39050381    -0.24800
N4291       N  0.09621941  0.73384395  0.36064423    -0.82200
H4292       H  0.07255778  0.71914666  0.35276188     0.13500
C4293       C  0.05642282  0.69848234  0.36483699     0.02900
N4294       N  0.06632595  0.69155691  0.39377281    -0.80800
H4295       H  0.09121057  0.70458365  0.40072763     0.18400
C4296       C  0.05686085  0.68359151  0.36212513    -0.25600
C4297       C  0.04543959  0.67658969  0.35495002     0.36400
C4298       C  0.03331673  0.68469462  0.35051003    -0.19700
C4299       C  0.03286275  0.69956255  0.35344568    -0.24900
C4300       C  0.04423909  0.70651425  0.36063232     0.27800
H4301       H  0.06633456  0.67750648  0.36527471     0.13500
N4302       N  0.04631223  0.66142718  0.35182113    -0.82200
H4303       H  0.02349872  0.70578445  0.35023746     0.18400
N4304       N  0.04348979  0.72169798  0.36370863    -0.80800
H4305       H  0.05589843  0.65709040  0.35589812     0.34000
H4306       H  0.04677900  0.66028279  0.34059553     0.38500
H4307       H  0.03381640  0.72604901  0.35986342     0.34000
H4308       H  0.04334540  0.72290196  0.37493623     0.30700
H4309       H  0.07143110  0.68998347  0.40371967     0.34000
H4310       H  0.05621776  0.69602839  0.39604339     0.30700
H4311       H  0.09553341  0.74348336  0.36646265     0.38500
H4312       H  0.09093697  0.73561072  0.35082475     0.34000
C4313       C  0.16274075  0.79595297  0.46071952    -0.19700
C4314       C  0.14750481  0.79472589  0.46051584     0.36500
C4315       C  0.14095746  0.78470355  0.45119370    -0.25700
C4316       C  0.14931287  0.77585275  0.44224792     0.02900
C4317       C  0.16447541  0.77679916  0.44268387     0.27700
C4318       C  0.17104571  0.78684153  0.45192053    -0.24800
N4319       N  0.13875231  0.80345836  0.46989444    -0.82200
H4320       H  0.12929636  0.78384217  0.45079748     0.13500
C4321       C  0.14209040  0.76613165  0.43187632     0.02900
N4322       N  0.17310218  0.76757870  0.43367204    -0.80800
H4323       H  0.18271217  0.78764720  0.45214947     0.18400
C4324       C  0.14315925  0.76924948  0.41713618    -0.25600
C4325       C  0.13674513  0.76026566  0.40678636     0.36400
C4326       C  0.12930065  0.74773764  0.41129385    -0.19700
C4327       C  0.12815094  0.74469019  0.42610977    -0.24900
C4328       C  0.13443105  0.75383549  0.43648164     0.27800
H4329       H  0.14897949  0.77880696  0.41372460     0.13500
N4330       N  0.13766887  0.76388792  0.39171586    -0.82200
H4331       H  0.12275879  0.73494894  0.42960217     0.18400
N4332       N  0.13329300  0.75058898  0.45161832    -0.80800
H4333       H  0.14361700  0.77336372  0.39023798     0.34000
H4334       H  0.12720183  0.76602468  0.38807975     0.38500
H4335       H  0.12723239  0.74120163  0.45320108     0.34000
H4336       H  0.14368775  0.74843068  0.45544506     0.30700
H4337       H  0.18408531  0.76968885  0.43519774     0.34000
H4338       H  0.17135366  0.75695254  0.43703074     0.30700
H4339       H  0.14104702  0.80039878  0.48051708     0.38500
H4340       H  0.12779073  0.80132230  0.46824686     0.34000
C4341       C  0.04567763  0.73953559  0.46670994    -0.19700
C4342       C  0.04534850  0.72794607  0.45678534     0.36500
C4343       C  0.05518629  0.72775555  0.44523590    -0.25700
C4344       C  0.06546606  0.73875876  0.44347749     0.02900
C4345       C  0.06542001  0.75060294  0.45304048     0.27700
C4346       C  0.05542847  0.75093204  0.46444488    -0.24800
N4347       N  0.03504589  0.71644773  0.45840799    -0.82200
H4348       H  0.05503282  0.71882869  0.43767774     0.13500
C4349       C  0.07685777  0.73715038  0.43227982     0.02900
N4350       N  0.07579283  0.76203327  0.45141150    -0.80800
H4351       H  0.05561185  0.75992573  0.47191603     0.18400
C4352       C  0.07924314  0.74817171  0.42210094    -0.25600
C4353       C  0.09021239  0.74690952  0.41165395     0.36400
C4354       C  0.09870924  0.73436324  0.41131474    -0.19700
C4355       C  0.09653285  0.72353106  0.42157901    -0.24900
C4356       C  0.08570380  0.72475024  0.43205836     0.27800
H4357       H  0.07251606  0.75772209  0.42229416     0.13500
N4358       N  0.09291677  0.75831143  0.40151034    -0.82200
H4359       H  0.10343072  0.71410561  0.42138446     0.18400
N4360       N  0.08376336  0.71352003  0.44259237    -0.80800
H4361       H  0.08584980  0.76691472  0.40330071     0.34000
H4362       H  0.09064846  0.75433437  0.39119533     0.38500
H4363       H  0.09104467  0.70509389  0.44081698     0.34000
H4364       H  0.08623039  0.71785766  0.45272058     0.30700
H4365       H  0.07423719  0.76997879  0.45927228     0.34000
H4366       H  0.08603398  0.75766564  0.45323333     0.30700
H4367       H  0.02476131  0.72083519  0.45690322     0.38500
H4368       H  0.03642831  0.70868319  0.45033257     0.34000
C4369       C  0.93928659  0.73220510  0.61778901    -0.19700
C4370       C  0.93655646  0.71945264  0.62570063     0.36500
C4371       C  0.94803255  0.71069174  0.63016845    -0.25700
C4372       C  0.96230753  0.71413347  0.62665582     0.02900
C4373       C  0.96516013  0.72641332  0.61813200     0.27700
C4374       C  0.95362501  0.73542097  0.61388804    -0.24800
N4375       N  0.92208485  0.71524110  0.62915381    -0.82200
H4376       H  0.94578799  0.70116990  0.63658425     0.13500
C4377       C  0.97403380  0.70521746  0.63295620     0.02900
N4378       N  0.97974249  0.72982211  0.61408265    -0.80800
H4379       H  0.95595847  0.74522463  0.60802010     0.18400
C4380       C  0.98134836  0.69510115  0.62441449    -0.25600
C4381       C  0.99155058  0.68558456  0.63053252     0.36400
C4382       C  0.99437640  0.68616414  0.64557721    -0.19700
C4383       C  0.98721551  0.69662821  0.65394784    -0.24900
C4384       C  0.97713381  0.70612018  0.64780874     0.27800
H4385       H  0.97890431  0.69448970  0.61298664     0.13500
N4386       N  0.99895555  0.67537564  0.62150829    -0.82200
H4387       H  0.98929591  0.69730378  0.66543959     0.18400
N4388       N  0.96980403  0.71656144  0.65664289    -0.80800
H4389       H  0.99535807  0.67613942  0.61083264     0.34000
H4390       H  0.00987401  0.67824229  0.62140837     0.38500
H4391       H  0.97315705  0.71575781  0.66739524     0.34000
H4392       H  0.97289003  0.72680510  0.65306215     0.30700
H4393       H  0.97999667  0.73910643  0.60767547     0.34000
H4394       H  0.98545461  0.73222389  0.62351999     0.30700
H4395       H  0.92023635  0.70503200  0.62472206     0.38500
H4396       H  0.92125775  0.71438247  0.64038422     0.34000
C4397       C  0.90369694  0.76288949  0.59072171    -0.19700
C4398       C  0.88981182  0.75775898  0.58709147     0.36500
C4399       C  0.88126331  0.76550706  0.57723860    -0.25700
C4400       C  0.88637552  0.77815139  0.57062077     0.02900
C4401       C  0.90043032  0.78307917  0.57396627     0.27700
C4402       C  0.90885772  0.77550084  0.58412880    -0.24800
N4403       N  0.88436902  0.74477404  0.59361910    -0.82200
H4404       H  0.87044752  0.76175316  0.57483755     0.13500
C4405       C  0.87673266  0.78613710  0.56043358     0.02900
N4406       N  0.90606056  0.79578916  0.56708806    -0.80800
H4407       H  0.91927878  0.77973355  0.58721660     0.18400
C4408       C  0.87382332  0.80086130  0.56272220    -0.25600
C4409       C  0.86426117  0.80851542  0.55367910     0.36400
C4410       C  0.85727068  0.80122609  0.54226581    -0.19700
C4411       C  0.86019398  0.78655052  0.53997637    -0.24900
C4412       C  0.86998889  0.77900057  0.54875789     0.27800
H4413       H  0.87883147  0.80633809  0.57176518     0.13500
N4414       N  0.86140290  0.82353806  0.55623435    -0.82200
H4415       H  0.85502955  0.78101024  0.53105261     0.18400
N4416       N  0.87323977  0.76413465  0.54576519    -0.80800
H4417       H  0.86743546  0.82728684  0.56501287     0.34000
H4418       H  0.85053793  0.82450130  0.55913313     0.38500
H4419       H  0.86737934  0.76048069  0.53683137     0.34000
H4420       H  0.88414856  0.76354346  0.54293572     0.30700
H4421       H  0.91650513  0.79799723  0.57075653     0.34000
H4422       H  0.90690987  0.79359460  0.55604432     0.30700
H4423       H  0.89093805  0.73626021  0.59021718     0.38500
H4424       H  0.87395668  0.74250072  0.58989731     0.34000
C4425       C  0.93396884  0.74840848  0.58892166    -0.19700
C4426       C  0.93573372  0.73564802  0.58077048     0.36500
C4427       C  0.94628966  0.73518502  0.56993438    -0.25700
C4428       C  0.95513174  0.74716019  0.56707802     0.02900
C4429       C  0.95321066  0.75996292  0.57507430     0.27700
C4430       C  0.94265887  0.76041946  0.58593812    -0.24800
N4431       N  0.92705659  0.72302983  0.58321307    -0.82200
H4432       H  0.94764821  0.72537535  0.56371469     0.13500
C4433       C  0.96647821  0.74608790  0.55581414     0.02900
N4434       N  0.96226521  0.77228051  0.57241480    -0.80800
H4435       H  0.94165817  0.76993534  0.59263719     0.18400
C4436       C  0.96604780  0.75544682  0.54393332    -0.25600
C4437       C  0.97653315  0.75470270  0.53299934     0.36400
C4438       C  0.98769800  0.74436390  0.53399528    -0.19700
C4439       C  0.98807065  0.73493803  0.54584117    -0.24900
C4440       C  0.97767594  0.73583312  0.55688025     0.27800
H4441       H  0.95737309  0.76324022  0.54311917     0.13500
N4442       N  0.97568212  0.76416460  0.52072344    -0.82200
H4443       H  0.99667907  0.72707166  0.54663017     0.18400
N4444       N  0.97854170  0.72653567  0.56927539    -0.80800
H4445       H  0.96689705  0.77117096  0.52170269     0.34000
H4446       H  0.97368913  0.75777312  0.51163450     0.38500
H4447       H  0.98742482  0.71963873  0.56843166     0.34000
H4448       H  0.98036804  0.73304366  0.57831975     0.30700
H4449       H  0.95939804  0.78084323  0.57918070     0.34000
H4450       H  0.97283353  0.76941511  0.57513764     0.30700
H4451       H  0.91917613  0.72486843  0.59105391     0.38500
H4452       H  0.93384975  0.71495169  0.58718628     0.34000
C4453       C  0.97222166  0.68195902  0.36294289    -0.19700
C4454       C  0.97332428  0.69624501  0.36813175     0.36500
C4455       C  0.96310507  0.70138723  0.37811432    -0.25700
C4456       C  0.95175660  0.69259480  0.38287294     0.02900
C4457       C  0.95087604  0.67819491  0.37805418     0.27700
C4458       C  0.96126222  0.67293916  0.36827259    -0.24800
N4459       N  0.98468319  0.70552939  0.36306354    -0.82200
H4460       H  0.96364450  0.71247427  0.38178938     0.13500
C4461       C  0.93987811  0.69924077  0.39127213     0.02900
N4462       N  0.93908899  0.66920637  0.38263480    -0.80800
H4463       H  0.96037964  0.66200033  0.36423745     0.18400
C4464       C  0.92798624  0.70460041  0.38370404    -0.25600
C4465       C  0.91680386  0.71181791  0.39085986     0.36400
C4466       C  0.91726488  0.71358836  0.40602408    -0.19700
C4467       C  0.92913718  0.70793459  0.41365783    -0.24900
C4468       C  0.94053705  0.70090441  0.40638679     0.27800
H4469       H  0.92752041  0.70342396  0.37206309     0.13500
N4470       N  0.90514704  0.71766009  0.38255728    -0.82200
H4471       H  0.92946776  0.70876001  0.42530267     0.18400
N4472       N  0.95278247  0.69552696  0.41423423    -0.80800
H4473       H  0.90025247  0.70919325  0.37691685     0.34000
H4474       H  0.90945344  0.72485120  0.37500100     0.38500
H4475       H  0.95166675  0.69770066  0.42525611     0.34000
H4476       H  0.95285999  0.68430363  0.41315641     0.30700
H4477       H  0.93983345  0.65899671  0.37789091     0.34000
H4478       H  0.94008227  0.66768733  0.39377544     0.30700
H4479       H  0.99448952  0.70111317  0.36647399     0.38500
H4480       H  0.98390850  0.71571846  0.36784562     0.34000
C4481       C  0.88813891  0.74552645  0.43905927    -0.19700
C4482       C  0.87648557  0.74281657  0.44850025     0.36500
C4483       C  0.87083932  0.75410478  0.45686590    -0.25700
C4484       C  0.87659343  0.76807985  0.45609902     0.02900
C4485       C  0.88881232  0.77064282  0.44736039     0.27700
C4486       C  0.89450891  0.75929723  0.43893490    -0.24800
N4487       N  0.87029918  0.72861767  0.44940402    -0.82200
H4488       H  0.86167730  0.75207716  0.46385730     0.13500
C4489       C  0.86915289  0.77982979  0.46414927     0.02900
N4490       N  0.89503851  0.78482819  0.44668453    -0.80800
H4491       H  0.90342972  0.76141519  0.43167638     0.18400
C4492       C  0.87630830  0.78715931  0.47533523    -0.25600
C4493       C  0.86879668  0.79677147  0.48444656     0.36400
C4494       C  0.85389472  0.79909318  0.48221354    -0.19700
C4495       C  0.84694753  0.79227305  0.47063012    -0.24900
C4496       C  0.85445567  0.78282751  0.46146324     0.27800
H4497       H  0.88758290  0.78483765  0.47738806     0.13500
N4498       N  0.87604967  0.80358152  0.49636801    -0.82200
H4499       H  0.83552793  0.79413447  0.46890310     0.18400
N4500       N  0.84715846  0.77599557  0.44958184    -0.80800
H4501       H  0.88697115  0.80074930  0.49649228     0.34000
H4502       H  0.87156511  0.79951691  0.50590178     0.38500
H4503       H  0.83637018  0.77926960  0.44912272     0.34000
H4504       H  0.85203794  0.77960729  0.44006353     0.30700
H4505       H  0.90396726  0.78490365  0.43977928     0.34000
H4506       H  0.88735857  0.79171008  0.44211431     0.30700
H4507       H  0.87822955  0.72172631  0.45350617     0.38500
H4508       H  0.86173855  0.72844456  0.45676084     0.34000
C4509       C  0.91895573  0.73451773  0.43249420    -0.19700
C4510       C  0.93069663  0.74173245  0.42590891     0.36500
C4511       C  0.94356247  0.74354255  0.43368434    -0.25700
C4512       C  0.94482503  0.73846117  0.44788175     0.02900
C4513       C  0.93295825  0.73179140  0.45464282     0.27700
C4514       C  0.92010497  0.72993168  0.44687039    -0.24800
N4515       N  0.92984595  0.74750615  0.41153844    -0.82200
H4516       H  0.95264745  0.74889734  0.42861672     0.13500
C4517       C  0.95864618  0.74001503  0.45564131     0.02900
N4518       N  0.93406158  0.72689759  0.46933894    -0.80800
H4519       H  0.91104613  0.72444294  0.45182923     0.18400
C4520       C  0.96090317  0.75216740  0.46431599    -0.25600
C4521       C  0.97338958  0.75346594  0.47284340     0.36400
C4522       C  0.98363297  0.74214223  0.47288034    -0.19700
C4523       C  0.98147473  0.73016485  0.46381784    -0.24900
C4524       C  0.96910772  0.72903276  0.45512290     0.27800
H4525       H  0.95275861  0.76054777  0.46459071     0.13500
N4526       N  0.97531382  0.76590683  0.48191383    -0.82200
H4527       H  0.98939055  0.72156617  0.46365477     0.18400
N4528       N  0.96705975  0.71675882  0.44584525    -0.80800
H4529       H  0.96624754  0.77259861  0.48144043     0.34000
H4530       H  0.98385203  0.77191498  0.47763298     0.38500
H4531       H  0.97587548  0.70976040  0.44654867     0.34000
H4532       H  0.95809993  0.71102860  0.44961017     0.30700
H4533       H  0.92427936  0.72242148  0.47276062     0.34000
H4534       H  0.94166673  0.71858416  0.46964632     0.30700
H4535       H  0.91953840  0.74622321  0.40717212     0.38500
H4536       H  0.93697946  0.74164550  0.40505341     0.34000
C4537       C  0.75151660  0.07756183  0.62544234    -0.19700
C4538       C  0.73650094  0.07804809  0.62305381     0.36500
C4539       C  0.72755391  0.06783579  0.62959646    -0.25700
C4540       C  0.73324136  0.05716099  0.63868961     0.02900
C4541       C  0.74834606  0.05672035  0.64122203     0.27700
C4542       C  0.75728196  0.06700122  0.63457918    -0.24800
N4543       N  0.73005779  0.08894324  0.61419193    -0.82200
H4544       H  0.71601738  0.06831712  0.62769640     0.13500
C4545       C  0.72302254  0.04678420  0.64530535     0.02900
N4546       N  0.75503460  0.04587599  0.65007211    -0.80800
H4547       H  0.76882062  0.06668637  0.63648617     0.18400
C4548       C  0.71577492  0.03689011  0.63643718    -0.25600
C4549       C  0.70547756  0.02729629  0.64216670     0.36400
C4550       C  0.70242054  0.02763250  0.65713807    -0.19700
C4551       C  0.70981649  0.03752291  0.66597572    -0.24900
C4552       C  0.71995159  0.04715198  0.66016445     0.27800
H4553       H  0.71816796  0.03669334  0.62498132     0.13500
N4554       N  0.69857102  0.01692139  0.63291796    -0.82200
H4555       H  0.70758454  0.03792064  0.67745982     0.18400
N4556       N  0.72700610  0.05741084  0.66933550    -0.80800
H4557       H  0.70294637  0.01735214  0.62251671     0.34000
H4558       H  0.68776439  0.01996459  0.63186805     0.38500
H4559       H  0.71907308  0.06372887  0.67427532     0.34000
H4560       H  0.73245317  0.05173120  0.67742258     0.30700
H4561       H  0.75941564  0.05104316  0.65910408     0.34000
H4562       H  0.74758487  0.03833566  0.65386395     0.30700
H4563       H  0.73268673  0.09903847  0.61848589     0.38500
H4564       H  0.73449337  0.08821149  0.60385621     0.34000
C4565       C  0.77747066  0.10622308  0.58833064    -0.19700
C4566       C  0.78915842  0.09975869  0.58090359     0.36500
C4567       C  0.79376109  0.10569104  0.56774610    -0.25700
C4568       C  0.78727954  0.11813612  0.56202194     0.02900
C4569       C  0.77559266  0.12451874  0.56940643     0.27700
C4570       C  0.77079476  0.11844630  0.58241717    -0.24800
N4571       N  0.79713581  0.08778256  0.58666776    -0.82200
H4572       H  0.80276934  0.10077743  0.56213558     0.13500
C4573       C  0.79325745  0.12489189  0.54874499     0.02900
N4574       N  0.76884527  0.13732960  0.56383585    -0.80800
H4575       H  0.76183442  0.12337056  0.58810009     0.18400
C4576       C  0.78406791  0.12769927  0.53701080    -0.25600
C4577       C  0.78897091  0.13545331  0.52496928     0.36400
C4578       C  0.80338723  0.14019380  0.52443537    -0.19700
C4579       C  0.81280229  0.13674207  0.53577514    -0.24900
C4580       C  0.80783277  0.12935740  0.54806268     0.27800
H4581       H  0.77293214  0.12412634  0.53734809     0.13500
N4582       N  0.77932188  0.13841316  0.51325287    -0.82200
H4583       H  0.82389050  0.14045783  0.53536287     0.18400
N4584       N  0.81737823  0.12685130  0.56004768    -0.80800
H4585       H  0.77547821  0.12857307  0.50928550     0.34000
H4586       H  0.77053469  0.14419078  0.51733239     0.38500
H4587       H  0.82772042  0.13077349  0.55778974     0.34000
H4588       H  0.81351491  0.13281518  0.56881571     0.30700
H4589       H  0.76032152  0.14056121  0.57048762     0.34000
H4590       H  0.77649656  0.14562193  0.56411896     0.30700
H4591       H  0.79380686  0.08510906  0.59708527     0.38500
H4592       H  0.79515525  0.07885828  0.58005100     0.34000
C4593       C  0.76486700  0.07586194  0.59535811    -0.19700
C4594       C  0.75718722  0.07684775  0.58228581     0.36500
C4595       C  0.75617364  0.06475080  0.57322013    -0.25700
C4596       C  0.76271981  0.05162647  0.57700687     0.02900
C4597       C  0.77048364  0.05068186  0.59004115     0.27700
C4598       C  0.77142703  0.06276035  0.59913131    -0.24800
N4599       N  0.75013299  0.08999610  0.57835028    -0.82200
H4600       H  0.75019730  0.06558221  0.56319273     0.13500
C4601       C  0.76114365  0.03898567  0.56727761     0.02900
N4602       N  0.77718459  0.03740219  0.59418812    -0.80800
H4603       H  0.77739285  0.06197869  0.60915981     0.18400
C4604       C  0.77339794  0.03291959  0.56081894    -0.25600
C4605       C  0.77220362  0.02160188  0.55072867     0.36400
C4606       C  0.75834696  0.01619134  0.54701710    -0.19700
C4607       C  0.74615753  0.02205058  0.55397405    -0.24900
C4608       C  0.74742605  0.03328504  0.56408533     0.27800
H4609       H  0.78393320  0.03731026  0.56339649     0.13500
N4610       N  0.78502661  0.01574950  0.54425216    -0.82200
H4611       H  0.73550884  0.01789811  0.55151114     0.18400
N4612       N  0.73483158  0.03894527  0.57117016    -0.80800
H4613       H  0.79426865  0.02030521  0.54887135     0.34000
H4614       H  0.78506779  0.01886878  0.53340373     0.38500
H4615       H  0.72553636  0.03359947  0.56764345     0.34000
H4616       H  0.73583412  0.03674315  0.58220129     0.30700
H4617       H  0.77292001  0.03428907  0.60416716     0.34000
H4618       H  0.78821819  0.03934172  0.59556956     0.30700
H4619       H  0.73914452  0.08781342  0.57698913     0.38500
H4620       H  0.75425022  0.09331172  0.56837332     0.34000
C4621       C  0.72374111  0.05862627  0.39648899    -0.19700
C4622       C  0.72931192  0.04468470  0.39440726     0.36500
C4623       C  0.72046317  0.03394200  0.38854710    -0.25700
C4624       C  0.70633484  0.03708779  0.38407996     0.02900
C4625       C  0.70053951  0.05092198  0.38664713     0.27700
C4626       C  0.70929138  0.06151569  0.39300651    -0.24800
N4627       N  0.74420120  0.04166206  0.39721395    -0.82200
H4628       H  0.72493014  0.02330917  0.38664050     0.13500
C4629       C  0.69840112  0.02634619  0.37531324     0.02900
N4630       N  0.68608360  0.05435702  0.38215665    -0.80800
H4631       H  0.70507461  0.07230688  0.39456385     0.18400
C4632       C  0.68466002  0.02172140  0.37962896    -0.25600
C4633       C  0.67664129  0.01201983  0.37114174     0.36400
C4634       C  0.68273760  0.00656035  0.35820272    -0.19700
C4635       C  0.69658114  0.01119685  0.35404994    -0.24900
C4636       C  0.70437966  0.02112001  0.36233823     0.27800
H4637       H  0.68013468  0.02581953  0.38960899     0.13500
N4638       N  0.66246588  0.00768459  0.37574076    -0.82200
H4639       H  0.70135398  0.00721523  0.34414517     0.18400
N4640       N  0.71829471  0.02607141  0.35752438    -0.80800
H4641       H  0.66006921  0.01201084  0.38589075     0.34000
H4642       H  0.65505680  0.01225741  0.36856315     0.38500
H4643       H  0.72122033  0.02105143  0.34784589     0.34000
H4644       H  0.71742529  0.03709267  0.35530028     0.30700
H4645       H  0.68349648  0.06498517  0.38490899     0.34000
H4646       H  0.68575563  0.05377190  0.37088513     0.30700
H4647       H  0.74897266  0.03820514  0.38758623     0.38500
H4648       H  0.74470949  0.03317365  0.40462963     0.34000
C4649       C  0.75920872  0.09127362  0.42025497    -0.19700
C4650       C  0.77284376  0.09638183  0.41584584     0.36500
C4651       C  0.78087492  0.10503863  0.42527425    -0.25700
C4652       C  0.77532259  0.10887930  0.43878507     0.02900
C4653       C  0.76190364  0.10342220  0.44339614     0.27700
C4654       C  0.75398604  0.09448100  0.43408201    -0.24800
N4655       N  0.77820283  0.09316690  0.40162974    -0.82200
H4656       H  0.79121975  0.10932237  0.42187290     0.13500
C4657       C  0.78329072  0.11945989  0.44750847     0.02900
N4658       N  0.75622173  0.10740054  0.45727920    -0.80800
H4659       H  0.74339955  0.09065849  0.43727786     0.18400
C4660       C  0.77791759  0.13351634  0.44858867    -0.25600
C4661       C  0.78541533  0.14405949  0.45638426     0.36400
C4662       C  0.79855629  0.14046221  0.46324558    -0.19700
C4663       C  0.80400333  0.12636881  0.46187186    -0.24900
C4664       C  0.79642465  0.11579728  0.45413730     0.27800
H4665       H  0.76787936  0.13632694  0.44327158     0.13500
N4666       N  0.77966378  0.15837781  0.45719447    -0.82200
H4667       H  0.81397688  0.12343107  0.46721816     0.18400
N4668       N  0.80187430  0.10131921  0.45311377    -0.80800
H4669       H  0.77856730  0.16232937  0.44667574     0.34000
H4670       H  0.76937200  0.15777475  0.46179179     0.38500
H4671       H  0.81169726  0.10039237  0.45859515     0.34000
H4672       H  0.79456606  0.09454721  0.45842006     0.30700
H4673       H  0.74613229  0.10261690  0.45893771     0.34000
H4674       H  0.76313611  0.10318517  0.46513823     0.30700
H4675       H  0.77977313  0.08202933  0.40097619     0.38500
H4676       H  0.78830746  0.09793782  0.40002729     0.34000
C4677       C  0.75085818  0.01367416  0.48341016    -0.19700
C4678       C  0.74299468  0.02666324  0.48431951     0.36500
C4679       C  0.74209902  0.03571548  0.47215995    -0.25700
C4680       C  0.74875651  0.03199887  0.45904161     0.02900
C4681       C  0.75682500  0.01909390  0.45821908     0.27700
C4682       C  0.75794852  0.01017568  0.47047895    -0.24800
N4683       N  0.73607389  0.03067343  0.49762253    -0.82200
H4684       H  0.73615699  0.04575069  0.47289736     0.13500
C4685       C  0.74707014  0.04174562  0.44632405     0.02900
N4686       N  0.76353328  0.01491670  0.44485931    -0.80800
H4687       H  0.76393635  0.00016209  0.46978410     0.18400
C4688       C  0.75935161  0.04705767  0.43920437    -0.25600
C4689       C  0.75810828  0.05653765  0.42739879     0.36400
C4690       C  0.74432669  0.06140791  0.42304589    -0.19700
C4691       C  0.73205588  0.05595244  0.43005906    -0.24900
C4692       C  0.73326286  0.04594816  0.44141418     0.27800
H4693       H  0.76995759  0.04375630  0.44285217     0.13500
N4694       N  0.77075298  0.06098036  0.41961441    -0.82200
H4695       H  0.72147599  0.05952071  0.42662311     0.18400
N4696       N  0.72051926  0.03992351  0.44790697    -0.80800
H4697       H  0.76991621  0.05687334  0.40913193     0.34000
H4698       H  0.78003609  0.05645186  0.42415249     0.38500
H4699       H  0.71123207  0.04407938  0.44303062     0.34000
H4700       H  0.72055302  0.02884093  0.44580312     0.30700
H4701       H  0.76904434  0.00515310  0.44607152     0.34000
H4702       H  0.75532070  0.01307978  0.43733270     0.30700
H4703       H  0.74416284  0.03227488  0.50533813     0.38500
H4704       H  0.73071357  0.04052847  0.49648437     0.34000
C4705       C  0.73266397  0.90214508  0.63278457    -0.19700
C4706       C  0.71824420  0.90129027  0.63763672     0.36500
C4707       C  0.71137538  0.91377955  0.64281563    -0.25700
C4708       C  0.71853946  0.92712185  0.64298748     0.02900
C4709       C  0.73289966  0.92799726  0.63800552     0.27700
C4710       C  0.73986969  0.91546058  0.63314819    -0.24800
N4711       N  0.71056291  0.88782294  0.63706648    -0.82200
H4712       H  0.70036145  0.91314127  0.64670257     0.13500
C4713       C  0.71094621  0.94006538  0.64858673     0.02900
N4714       N  0.74028147  0.94164359  0.63777726    -0.80800
H4715       H  0.75099389  0.91609025  0.62961250     0.18400
C4716       C  0.71681974  0.94756671  0.66034490    -0.25600
C4717       C  0.71005790  0.95991188  0.66597800     0.36400
C4718       C  0.69687403  0.96471075  0.65988567    -0.19700
C4719       C  0.69105982  0.95714221  0.64804907    -0.24900
C4720       C  0.69798661  0.94494089  0.64230252     0.27800
H4721       H  0.72678682  0.94375709  0.66513312     0.13500
N4722       N  0.71663453  0.96757359  0.67777306    -0.82200
H4723       H  0.68100141  0.96069203  0.64326634     0.18400
N4724       N  0.69196001  0.93751410  0.63006872    -0.80800
H4725       H  0.72604337  0.96237280  0.68119267     0.34000
H4726       H  0.71983132  0.97766856  0.67387473     0.38500
H4727       H  0.68235003  0.94241376  0.62676495     0.34000
H4728       H  0.69923542  0.93857113  0.62150162     0.30700
H4729       H  0.75078283  0.94042651  0.63382794     0.34000
H4730       H  0.73485644  0.94831398  0.63047034     0.30700
H4731       H  0.70953801  0.88493340  0.62619829     0.38500
H4732       H  0.70008453  0.88904099  0.64107420     0.34000
C4733       C  0.76263847  0.87014130  0.60125251    -0.19700
C4734       C  0.77502535  0.86167307  0.60383173     0.36500
C4735       C  0.78334416  0.85671414  0.59218957    -0.25700
C4736       C  0.77957536  0.86007315  0.57793297     0.02900
C4737       C  0.76727578  0.86859029  0.57523944     0.27700
C4738       C  0.75880210  0.87335105  0.58691144    -0.24800
N4739       N  0.77932013  0.85821123  0.61827834    -0.82200
H4740       H  0.79275036  0.85009191  0.59428477     0.13500
C4741       C  0.78824287  0.85396133  0.56595011     0.02900
N4742       N  0.76346017  0.87233753  0.56066889    -0.80800
H4743       H  0.74907664  0.87941618  0.58473759     0.18400
C4744       C  0.78222760  0.84305818  0.55739233    -0.25600
C4745       C  0.79031347  0.83630097  0.54647499     0.36400
C4746       C  0.80486169  0.84045076  0.54417073    -0.19700
C4747       C  0.81070298  0.85171838  0.55252214    -0.24900
C4748       C  0.80252874  0.85849898  0.56340077     0.27800
H4749       H  0.77118983  0.83971272  0.55936439     0.13500
N4750       N  0.78372853  0.82533384  0.53767827    -0.82200
H4751       H  0.82176159  0.85508058  0.55073931     0.18400
N4752       N  0.80867097  0.86989783  0.57195302    -0.80800
H4753       H  0.77309742  0.82341680  0.54095503     0.34000
H4754       H  0.78316192  0.82931595  0.52712807     0.38500
H4755       H  0.81930176  0.87194923  0.56876597     0.34000
H4756       H  0.80279638  0.87928677  0.56982416     0.30700
H4757       H  0.75411556  0.87865355  0.56053405     0.34000
H4758       H  0.77175486  0.87878880  0.55654337     0.30700
H4759       H  0.77959790  0.84697757  0.61924640     0.38500
H4760       H  0.78978744  0.86211985  0.61987599     0.34000
C4761       C  0.74908282  0.90041594  0.60423118    -0.19700
C4762       C  0.73667759  0.90518959  0.59689432     0.36500
C4763       C  0.73794560  0.91605113  0.58644663    -0.25700
C4764       C  0.75143613  0.92200674  0.58296659     0.02900
C4765       C  0.76386424  0.91734973  0.59047513     0.27700
C4766       C  0.76253870  0.90657127  0.60108877    -0.24800
N4767       N  0.72291527  0.89869212  0.59989055    -0.82200
H4768       H  0.72840286  0.91973057  0.58077470     0.13500
C4769       C  0.75227520  0.93273765  0.57108470     0.02900
N4770       N  0.77775847  0.92338149  0.58711546    -0.80800
H4771       H  0.77199049  0.90278741  0.60683315     0.18400
C4772       C  0.75779413  0.94658741  0.57380095    -0.25600
C4773       C  0.75809155  0.95712889  0.56286764     0.36400
C4774       C  0.75251372  0.95377200  0.54910656    -0.19700
C4775       C  0.74704955  0.93996231  0.54636048    -0.24900
C4776       C  0.74707808  0.92931828  0.55715307     0.27800
H4777       H  0.76167411  0.94922069  0.58452314     0.13500
N4778       N  0.76354473  0.97135546  0.56579817    -0.82200
H4779       H  0.74291266  0.93744800  0.53570151     0.18400
N4780       N  0.74191713  0.91501790  0.55403847    -0.80800
H4781       H  0.76688440  0.97217489  0.57655438     0.34000
H4782       H  0.77275743  0.97287458  0.55945956     0.38500
H4783       H  0.73846151  0.91427582  0.54331361     0.34000
H4784       H  0.75063789  0.90794704  0.55512180     0.30700
H4785       H  0.78573623  0.91884305  0.59368135     0.34000
H4786       H  0.78025977  0.92048394  0.57649481     0.30700
H4787       H  0.72352248  0.88784189  0.59687121     0.38500
H4788       H  0.71484607  0.90336597  0.59353957     0.34000
C4789       C  0.71198301  0.89576774  0.40759520    -0.19700
C4790       C  0.69721384  0.89411609  0.40421950     0.36500
C4791       C  0.69041116  0.90428752  0.39527422    -0.25700
C4792       C  0.69806450  0.91611808  0.38982347     0.02900
C4793       C  0.71250334  0.91841013  0.39409546     0.27700
C4794       C  0.71936105  0.90813217  0.40290899    -0.24800
N4795       N  0.68929994  0.88193417  0.40966168    -0.82200
H4796       H  0.67920429  0.90282546  0.39224669     0.13500
C4797       C  0.69085482  0.92587678  0.37946659     0.02900
N4798       N  0.72010392  0.93115118  0.38952066    -0.80800
H4799       H  0.73069349  0.90939791  0.40546665     0.18400
C4800       C  0.68152644  0.93654700  0.38468541    -0.25600
C4801       C  0.67480527  0.94631774  0.37522162     0.36400
C4802       C  0.67755809  0.94534903  0.36023279    -0.19700
C4803       C  0.68655913  0.93433007  0.35501946    -0.24900
C4804       C  0.69306011  0.92442377  0.36447015     0.27800
H4805       H  0.67969117  0.93738135  0.39621367     0.13500
N4806       N  0.66555080  0.95742860  0.38083129    -0.82200
H4807       H  0.68846618  0.93340836  0.34350783     0.18400
N4808       N  0.70149625  0.91265454  0.35888255    -0.80800
H4809       H  0.66448380  0.95645258  0.39203032     0.34000
H4810       H  0.67059470  0.96734485  0.37893999     0.38500
H4811       H  0.70165930  0.91289468  0.34759455     0.34000
H4812       H  0.71216321  0.91402561  0.36225132     0.30700
H4813       H  0.73051388  0.93132450  0.39387861     0.34000
H4814       H  0.72134195  0.93072398  0.37832160     0.30700
H4815       H  0.68906392  0.88280331  0.42091846     0.38500
H4816       H  0.67857326  0.88228246  0.40616506     0.34000
C4817       C  0.74884602  0.86699573  0.43475846    -0.19700
C4818       C  0.76069016  0.85893285  0.42948050     0.36500
C4819       C  0.77100784  0.85354438  0.43920578    -0.25700
C4820       C  0.76995114  0.85635935  0.45401647     0.02900
C4821       C  0.75858297  0.86499412  0.45925200     0.27700
C4822       C  0.74801870  0.87006022  0.44958941    -0.24800
N4823       N  0.76220751  0.85626836  0.41425566    -0.82200
H4824       H  0.77991333  0.84708225  0.43524939     0.13500
C4825       C  0.78075596  0.84997651  0.46391268     0.02900
N4826       N  0.75789212  0.86868167  0.47431878    -0.80800
H4827       H  0.73890280  0.87601875  0.45376828     0.18400
C4828       C  0.79391521  0.85706899  0.46614702    -0.25600
C4829       C  0.80456708  0.85121045  0.47529027     0.36400
C4830       C  0.80183929  0.83803006  0.48258588    -0.19700
C4831       C  0.78865220  0.83087198  0.48000144    -0.24900
C4832       C  0.77815856  0.83664894  0.47069849     0.27800
H4833       H  0.79590450  0.86718234  0.46062417     0.13500
N4834       N  0.81807997  0.85861957  0.47709279    -0.82200
H4835       H  0.78641332  0.82071568  0.48532907     0.18400
N4836       N  0.76500267  0.82888777  0.46787421    -0.80800
H4837       H  0.81810444  0.86832592  0.47134175     0.34000
H4838       H  0.82609884  0.85218536  0.47244957     0.38500
H4839       H  0.76490646  0.81907929  0.47344400     0.34000
H4840       H  0.75642439  0.83494408  0.47196430     0.30700
H4841       H  0.74908495  0.87543397  0.47633564     0.34000
H4842       H  0.75607776  0.85921950  0.48016609     0.30700
H4843       H  0.77143988  0.85012769  0.41218009     0.38500
H4844       H  0.76375765  0.86622862  0.40919183     0.34000
C4845       C  0.73279333  0.89647312  0.43391432    -0.19700
C4846       C  0.74576212  0.90452408  0.43376366     0.36500
C4847       C  0.74795300  0.91527249  0.44422414    -0.25700
C4848       C  0.73750496  0.91819039  0.45482089     0.02900
C4849       C  0.72453670  0.91019354  0.45490535     0.27700
C4850       C  0.72223663  0.89956827  0.44430871    -0.24800
N4851       N  0.75684313  0.90213786  0.42316727    -0.82200
H4852       H  0.75787515  0.92146909  0.44403482     0.13500
C4853       C  0.74019675  0.92974292  0.46567162     0.02900
N4854       N  0.71392941  0.91267084  0.46595959    -0.80800
H4855       H  0.71240124  0.89324137  0.44442724     0.18400
C4856       C  0.73078461  0.94157121  0.46638280    -0.25600
C4857       C  0.73295610  0.95275879  0.47643036     0.36400
C4858       C  0.74475371  0.95204243  0.48610051    -0.19700
C4859       C  0.75427293  0.94027677  0.48524518    -0.24900
C4860       C  0.75204670  0.92906446  0.47522091     0.27800
H4861       H  0.72179567  0.94214599  0.45891503     0.13500
N4862       N  0.72340040  0.96497202  0.47662331    -0.82200
H4863       H  0.76331196  0.93967058  0.49264662     0.18400
N4864       N  0.76163648  0.91688609  0.47483015    -0.80800
H4865       H  0.71526483  0.96378776  0.46888471     0.34000
H4866       H  0.72941242  0.97403679  0.47360617     0.38500
H4867       H  0.76980512  0.91802079  0.48254094     0.34000
H4868       H  0.75567908  0.90775612  0.47775055     0.30700
H4869       H  0.70504050  0.90586392  0.46451878     0.34000
H4870       H  0.71858472  0.90984976  0.47585178     0.30700
H4871       H  0.75381696  0.89419879  0.41576913     0.38500
H4872       H  0.75798111  0.91166311  0.41723195     0.34000
loop_ 
_geom_bond_atom_site_label_1 
_geom_bond_atom_site_label_2 
_geom_bond_distance 
_geom_bond_site_symmetry_2 
_ccdc_geom_bond_type 
N1            C5   1.359       .  A
N1            C2   1.357       .  A
N1         C4845   1.440       .  S
C2            C3   1.382       .  A
C2         C4789   1.482       .  S
C3            C4   1.374       .  A
C3            H6   1.082       .  S
C4            C5   1.384       .  A
C4            H7   1.082       .  S
C5         C4817   1.488       .  S
N8           C12   1.356       .  A
N8            C9   1.355       .  A
N8         C4761   1.438       .  S
C9           C10   1.383       .  A
C9         C4705   1.485       .  S
C10          C11   1.380       .  A
C10          H13   1.082       .  S
C11          C12   1.386       .  A
C11          H14   1.082       .  S
C12        C4733   1.490       .  S
N15          C19   1.358       .  A
N15          C16   1.356       .  A
N15        C4690   1.449       .  S
C16          C17   1.380       .  A
C16        C4649   1.468       .  S
C17          C18   1.370       .  A
C17          H20   1.082       .  S
C18          C19   1.382       .  A
C18          H21   1.082       .  S
C19        C4621   1.474       .  S
N22          C26   1.356       .  A
N22          C23   1.354       .  A
N22        C4593   1.441       .  S
C23          C24   1.380       .  A
C23        C4537   1.475       .  S
C24          C25   1.378       .  A
C24          H27   1.082       .  S
C25          C26   1.384       .  A
C25          H28   1.082       .  S
C26        C4565   1.480       .  S
O29         Cu37   2.013       .  S
O29          C39   1.279       .  A
O30         Cu37   2.010   1_545  S
O30          C40   1.279       .  A
O31         Cu37   2.013   1_545  S
O31          C41   1.278       .  A
O32         Cu37   2.014       .  S
O32          C42   1.278       .  A
O33         Cu38   2.009       .  S
O33          C42   1.277       .  A
O34         Cu38   2.017       .  S
O34          C41   1.278   1_565  A
O35         Cu38   2.020       .  S
O35          C40   1.279   1_565  A
O36         Cu38   2.020       .  S
O36          C39   1.279       .  A
Cu37        Cu38   2.369       .  S
C39        C4858   1.486       .  S
C40        C4606   1.496       .  S
C41        C4677   1.481       .  S
C42        C4774   1.471       .  S
N43          C47   1.358       .  A
N43          C44   1.362       .  A
N43        C4509   1.437       .  S
C44          C45   1.385       .  A
C44        C4466   1.496       .  S
C45          C46   1.374       .  A
C45          H48   1.082       .  S
C46          C47   1.382       .  A
C46          H49   1.082       .  S
C47        C4481   1.489       .  S
N50          C54   1.359       .  A
N50          C51   1.360       .  A
N50        C4425   1.436       .  S
C51          C52   1.386       .  A
C51        C4369   1.497       .  S
C52          C53   1.376       .  A
C52          H55   1.082       .  S
C53          C54   1.381       .  A
C53          H56   1.082       .  S
C54        C4397   1.487       .  S
N57          C61   1.355       .  A
N57          C58   1.354       .  A
N57        C4354   1.436       .  S
C58          C59   1.382       .  A
C58        C4285   1.481       .  S
C59          C60   1.377       .  A
C59          H62   1.082       .  S
C60          C61   1.385       .  A
C60          H63   1.082       .  S
C61        C4326   1.484       .  S
N64          C68   1.355       .  A
N64          C65   1.356       .  A
N64        C4270   1.442       .  S
C65          C66   1.384       .  A
C65        C4201   1.480       .  S
C66          C67   1.377       .  A
C66          H69   1.082       .  S
C67          C68   1.381       .  A
C67          H70   1.082       .  S
C68        C4229   1.477       .  S
O71         Cu79   2.006       .  S
O71          C81   1.277   1_455  A
O72         Cu79   2.013       .  S
O72          C82   1.278       .  A
O73         Cu79   2.004       .  S
O73          C83   1.278       .  A
O74         Cu79   1.999       .  S
O74          C84   1.276   1_455  A
O75         Cu80   2.022       .  S
O75          C84   1.280   1_455  A
O76         Cu80   2.011       .  S
O76          C83   1.279       .  A
O77         Cu80   2.012       .  S
O77          C82   1.277       .  A
O78         Cu80   2.006       .  S
O78          C81   1.278   1_455  A
Cu79        Cu80   2.372       .  S
C81        C4522   1.481       .  S
C82        C4257   1.473       .  S
C83        C4341   1.483       .  S
C84        C4438   1.479       .  S
N85          C89   1.359       .  A
N85          C86   1.358       .  A
N85        C4173   1.439       .  S
C86          C87   1.383       .  A
C86        C4145   1.487       .  S
C87          C88   1.378       .  A
C87          H90   1.082       .  S
C88          C89   1.383       .  A
C88          H91   1.082       .  S
C89        C4117   1.488       .  S
N92          C96   1.350       .  A
N92          C93   1.353       .  A
N92        C4089   1.439       .  S
C93          C94   1.384       .  A
C93        C4074   1.474       .  S
C94          C95   1.376       .  A
C94          H97   1.082       .  S
C95          C96   1.381       .  A
C95          H98   1.082       .  S
C96        C4033   1.468       .  S
N99         C103   1.355       .  A
N99         C100   1.351       .  A
N99        C4018   1.442       .  S
C100        C101   1.381       .  A
C100       C3977   1.471       .  S
C101        C102   1.376       .  A
C101        H104   1.082       .  S
C102        C103   1.384       .  A
C102        H105   1.082       .  S
C103       C3962   1.476       .  S
N106        C110   1.355       .  A
N106        C107   1.356       .  A
N106       C3934   1.443       .  S
C107        C108   1.383       .  A
C107       C3906   1.482       .  S
C108        C109   1.376       .  A
C108        H111   1.082       .  S
C109        C110   1.382       .  A
C109        H112   1.082       .  S
C110       C3878   1.477       .  S
O113       Cu121   1.999   1_565  S
O113        C123   1.276       .  A
O114       Cu121   2.003       .  S
O114        C124   1.276       .  A
O115       Cu121   2.011   1_565  S
O115        C125   1.278       .  A
O116       Cu121   2.010       .  S
O116        C126   1.278       .  A
O117       Cu122   2.015       .  S
O117        C126   1.279       .  A
O118       Cu122   2.009   1_565  S
O118        C125   1.278       .  A
O119       Cu122   1.999       .  S
O119        C124   1.277       .  A
O120       Cu122   2.003   1_565  S
O120        C123   1.277       .  A
Cu121      Cu122   2.372       .  S
C123       C4186   1.472       .  S
C124       C3921   1.467       .  S
C125       C4102   1.482       .  S
C126       C4005   1.481       .  S
N127        C131   1.351       .  A
N127        C128   1.352       .  A
N127       C3837   1.440       .  S
C128        C129   1.385       .  A
C128       C3809   1.477       .  S
C129        C130   1.379       .  A
C129        H132   1.082       .  S
C130        C131   1.383       .  A
C130        H133   1.082       .  S
C131       C3794   1.475       .  S
N134        C138   1.351       .  A
N134        C135   1.351       .  A
N134       C3753   1.444       .  S
C135        C136   1.382       .  A
C135       C3725   1.465       .  S
C136        C137   1.376       .  A
C136        H139   1.082       .  S
C137        C138   1.382       .  A
C137        H140   1.082       .  S
C138       C3697   1.467       .  S
N141        C145   1.356       .  A
N141        C142   1.356       .  A
N141       C3682   1.443       .  S
C142        C143   1.382       .  A
C142       C3641   1.480       .  S
C143        C144   1.375       .  A
C143        H146   1.082       .  S
C144        C145   1.382       .  A
C144        H147   1.082       .  S
C145       C3613   1.476       .  S
N148        C152   1.358       .  A
N148        C149   1.357       .  A
N148       C3598   1.448       .  S
C149        C150   1.382       .  A
C149       C3557   1.475       .  S
C150        C151   1.371       .  A
C150        H153   1.082       .  S
C151        C152   1.382       .  A
C151        H154   1.082       .  S
C152       C3529   1.472       .  S
O155       Cu163   2.020       .  S
O155        C165   1.279       .  A
O156       Cu163   2.030   1_545  S
O156        C166   1.280       .  A
O157       Cu163   2.015       .  S
O157        C167   1.278       .  A
O158       Cu163   2.013   1_545  S
O158        C168   1.278       .  A
O159       Cu164   2.014   1_545  S
O159        C168   1.277       .  A
O160       Cu164   2.008       .  S
O160        C167   1.278       .  A
O161       Cu164   2.008   1_545  S
O161        C166   1.277       .  A
O162       Cu164   2.019       .  S
O162        C165   1.279       .  A
Cu163      Cu164   2.370       .  S
C165       C3850   1.495       .  S
C166       C3585   1.484       .  S
C167       C3766   1.483       .  S
C168       C3669   1.474       .  S
N169        C173   1.351       .  A
N169        C170   1.354       .  A
N169       C3501   1.438       .  S
C170        C171   1.386       .  A
C170       C3473   1.482       .  S
C171        C172   1.380       .  A
C171        H174   1.082       .  S
C172        C173   1.381       .  A
C172        H175   1.082       .  S
C173       C3445   1.476       .  S
N176        C180   1.352       .  A
N176        C177   1.353       .  A
N176       C3430   1.438       .  S
C177        C178   1.381       .  A
C177       C3389   1.473       .  S
C178        C179   1.377       .  A
C178        H181   1.082       .  S
C179        C180   1.382       .  A
C179        H182   1.082       .  S
C180       C3361   1.475       .  S
N183        C187   1.350       .  A
N183        C184   1.350       .  A
N183       C3333   1.439       .  S
C184        C185   1.382       .  A
C184       C3318   1.471       .  S
C185        C186   1.381       .  A
C185        H188   1.082       .  S
C186        C187   1.382       .  A
C186        H189   1.082       .  S
C187       C3290   1.472       .  S
N190        C194   1.354       .  A
N190        C191   1.355       .  A
N190       C3249   1.440       .  S
C191        C192   1.384       .  A
C191       C3234   1.480       .  S
C192        C193   1.375       .  A
C192        H195   1.082       .  S
C193        C194   1.381       .  A
C193        H196   1.082       .  S
C194       C3206   1.475       .  S
O197       Cu205   2.012   1_554  S
O197        C207   1.279       .  A
O198       Cu205   2.010       .  S
O198        C208   1.278       .  A
O199       Cu205   1.992   1_554  S
O199        C209   1.275       .  A
O200       Cu205   1.995       .  S
O200        C210   1.276       .  A
O201       Cu206   2.019       .  S
O201        C210   1.279       .  A
O202       Cu206   2.017   1_554  S
O202        C209   1.280       .  A
O203       Cu206   2.016       .  S
O203        C208   1.279       .  A
O204       Cu206   2.012   1_554  S
O204        C207   1.278       .  A
Cu205      Cu206   2.371       .  S
C207       C3262   1.481       .  S
C208       C3514   1.488       .  S
C209       C3346   1.480       .  S
C210       C3417   1.476       .  S
N211        C215   1.354       .  A
N211        C212   1.354       .  A
N211       C3165   1.441       .  S
C212        C213   1.382       .  A
C212       C3137   1.477       .  S
C213        C214   1.378       .  A
C213        H216   1.082       .  S
C214        C215   1.384       .  A
C214        H217   1.082       .  S
C215       C3122   1.480       .  S
N218        C222   1.357       .  A
N218        C219   1.357       .  A
N218       C3081   1.443       .  S
C219        C220   1.382       .  A
C219       C3066   1.481       .  S
C220        C221   1.376       .  A
C220        H223   1.082       .  S
C221        C222   1.384       .  A
C221        H224   1.082       .  S
C222       C3025   1.483       .  S
N225        C229   1.357       .  A
N225        C226   1.357       .  A
N225       C3010   1.444       .  S
C226        C227   1.383       .  A
C226       C2969   1.481       .  S
C227        C228   1.373       .  A
C227        H230   1.082       .  S
C228        C229   1.382       .  A
C228        H231   1.082       .  S
C229       C2954   1.478       .  S
N232        C236   1.356       .  A
N232        C233   1.355       .  A
N232       C2913   1.438       .  S
C233        C234   1.382       .  A
C233       C2885   1.483       .  S
C234        C235   1.378       .  A
C234        H237   1.082       .  S
C235        C236   1.384       .  A
C235        H238   1.082       .  S
C236       C2857   1.484       .  S
O239       Cu247   2.006       .  S
O239        C249   1.277       .  A
O240       Cu247   2.007   1_565  S
O240        C250   1.278       .  A
O241       Cu247   1.993       .  S
O241        C251   1.276       .  A
O242       Cu247   1.999   1_565  S
O242        C252   1.277       .  A
O243       Cu248   2.019   1_565  S
O243        C252   1.280       .  A
O244       Cu248   2.017       .  S
O244        C251   1.279       .  A
O245       Cu248   2.011   1_565  S
O245        C250   1.277       .  A
O246       Cu248   2.012       .  S
O246        C249   1.277       .  A
Cu247      Cu248   2.370       .  S
C249       C2926   1.471       .  S
C250       C3178   1.477       .  S
C251       C2997   1.485       .  S
C252       C3094   1.491       .  S
N253        C257   1.360       .  A
N253        C254   1.358       .  A
N253       C2829   1.443       .  S
C254        C255   1.380       .  A
C254       C2773   1.479       .  S
C255        C256   1.373       .  A
C255        H258   1.082       .  S
C256        C257   1.382       .  A
C256        H259   1.082       .  S
C257       C2801   1.483       .  S
N260        C264   1.354       .  A
N260        C261   1.354       .  A
N260       C2745   1.439       .  S
C261        C262   1.383       .  A
C261       C2689   1.480       .  S
C262        C263   1.377       .  A
C262        H265   1.082       .  S
C263        C264   1.382       .  A
C263        H266   1.082       .  S
C264       C2717   1.477       .  S
N267        C271   1.352       .  A
N267        C268   1.352       .  A
N267       C2674   1.434       .  S
C268        C269   1.383       .  A
C268       C2605   1.478       .  S
C269        C270   1.377       .  A
C269        H272   1.082       .  S
C270        C271   1.383       .  A
C270        H273   1.082       .  S
C271       C2633   1.480       .  S
N274        C278   1.353       .  A
N274        C275   1.353       .  A
N274       C2590   1.445       .  S
C275        C276   1.382       .  A
C275       C2549   1.469       .  S
C276        C277   1.377       .  A
C276        H279   1.082       .  S
C277        C278   1.383       .  A
C277        H280   1.082       .  S
C278       C2521   1.473       .  S
O281       Cu289   2.002       .  S
O281        C291   1.275       .  A
O282       Cu289   1.997   1_556  S
O282        C292   1.276       .  A
O283       Cu289   2.008   1_556  S
O283        C293   1.279       .  A
O284       Cu289   2.010       .  S
O284        C294   1.278       .  A
O285       Cu290   2.002       .  S
O285        C294   1.277       .  A
O286       Cu290   2.005   1_556  S
O286        C293   1.277       .  A
O287       Cu290   2.018   1_556  S
O287        C292   1.279       .  A
O288       Cu290   2.019       .  S
O288        C291   1.279       .  A
Cu289      Cu290   2.369       .  S
C291       C2577   1.472       .  S
C292       C2842   1.478       .  S
C293       C2758   1.491       .  S
C294       C2661   1.487       .  S
N295        C299   1.354       .  A
N295        C296   1.357       .  A
N295       C2493   1.441       .  S
C296        C297   1.384       .  A
C296       C2465   1.479       .  S
C297        C298   1.375       .  A
C297        H300   1.082       .  S
C298        C299   1.382       .  A
C298        H301   1.082       .  S
C299       C2450   1.479       .  S
N302        C306   1.358       .  A
N302        C303   1.358       .  A
N302       C2409   1.446       .  S
C303        C304   1.383       .  A
C303       C2381   1.481       .  S
C304        C305   1.374       .  A
C304        H307   1.082       .  S
C305        C306   1.381       .  A
C305        H308   1.082       .  S
C306       C2353   1.476       .  S
N309        C313   1.350       .  A
N309        C310   1.351       .  A
N309       C2325   1.435       .  S
C310        C311   1.382       .  A
C310       C2282   1.477       .  S
C311        C312   1.383       .  A
C311        H314   1.082       .  S
C312        C313   1.384       .  A
C312        H315   1.082       .  S
C313       C2297   1.479       .  S
N316        C320   1.356       .  A
N316        C317   1.356       .  A
N316       C2241   1.432       .  S
C317        C318   1.384       .  A
C317       C2185   1.493       .  S
C318        C319   1.380       .  A
C318        H321   1.082       .  S
C319        C320   1.384       .  A
C319        H322   1.082       .  S
C320       C2213   1.491       .  S
O323       Cu331   2.012       .  S
O323        C333   1.278       .  A
O324       Cu331   2.020   1_556  S
O324        C334   1.280       .  A
O325       Cu331   2.000   1_556  S
O325        C335   1.277       .  A
O326       Cu331   2.005       .  S
O326        C336   1.278       .  A
O327       Cu332   2.008       .  S
O327        C336   1.277       .  A
O328       Cu332   2.016   1_556  S
O328        C335   1.279       .  A
O329       Cu332   1.993   1_556  S
O329        C334   1.275       .  A
O330       Cu332   1.985       .  S
O330        C333   1.275       .  A
Cu331      Cu332   2.371       .  S
C333       C2254   1.467       .  S
C334       C2506   1.491       .  S
C335       C2422   1.479       .  S
C336       C2338   1.483       .  S
N337        C341   1.354       .  A
N337        C338   1.353       .  A
N337       C2157   1.436       .  S
C338        C339   1.380       .  A
C338       C2101   1.478       .  S
C339        C340   1.377       .  A
C339        H342   1.082       .  S
C340        C341   1.385       .  A
C340        H343   1.082       .  S
C341       C2129   1.482       .  S
N344        C348   1.354       .  A
N344        C345   1.355       .  A
N344       C2073   1.443       .  S
C345        C346   1.383       .  A
C345       C2017   1.475       .  S
C346        C347   1.373       .  A
C346        H349   1.082       .  S
C347        C348   1.381       .  A
C347        H350   1.082       .  S
C348       C2045   1.470       .  S
N351        C355   1.355       .  A
N351        C352   1.351       .  A
N351       C1989   1.437       .  S
C352        C353   1.383       .  A
C352       C1961   1.479       .  S
C353        C354   1.380       .  A
C353        H356   1.082       .  S
C354        C355   1.383       .  A
C354        H357   1.082       .  S
C355       C1946   1.481       .  S
N358        C362   1.355       .  A
N358        C359   1.356       .  A
N358       C1905   1.440       .  S
C359        C360   1.383       .  A
C359       C1877   1.479       .  S
C360        C361   1.377       .  A
C360        H363   1.082       .  S
C361        C362   1.383       .  A
C361        H364   1.082       .  S
C362       C1862   1.481       .  S
O365       Cu373   2.000       .  S
O365        C375   1.277       .  A
O366       Cu373   1.999   1_655  S
O366        C376   1.277       .  A
O367       Cu373   2.010       .  S
O367        C377   1.278       .  A
O368       Cu373   2.006   1_655  S
O368        C378   1.277       .  A
O369       Cu374   2.015   1_655  S
O369        C378   1.279       .  A
O370       Cu374   2.016       .  S
O370        C377   1.279       .  A
O371       Cu374   2.005   1_655  S
O371        C376   1.277       .  A
O372       Cu374   2.006       .  S
O372        C375   1.278       .  A
Cu373      Cu374   2.371       .  S
C375       C1918   1.489       .  S
C376       C2170   1.472       .  S
C377       C2002   1.482       .  S
C378       C2086   1.481       .  S
N379        C383   1.353       .  A
N379        C380   1.352       .  A
N379       C1821   1.445       .  S
C380        C381   1.381       .  A
C380       C1793   1.468       .  S
C381        C382   1.374       .  A
C381        H384   1.082       .  S
C382        C383   1.383       .  A
C382        H385   1.082       .  S
C383       C1778   1.468       .  S
N386        C390   1.352       .  A
N386        C387   1.353       .  A
N386       C1737   1.441       .  S
C387        C388   1.383       .  A
C387       C1709   1.472       .  S
C388        C389   1.374       .  A
C388        H391   1.082       .  S
C389        C390   1.382       .  A
C389        H392   1.082       .  S
C390       C1681   1.471       .  S
N393        C397   1.351       .  A
N393        C394   1.356       .  A
N393       C1653   1.436       .  S
C394        C395   1.388       .  A
C394       C1625   1.489       .  S
C395        C396   1.378       .  A
C395        H398   1.082       .  S
C396        C397   1.378       .  A
C396        H399   1.082       .  S
C397       C1610   1.472       .  S
N400        C404   1.355       .  A
N400        C401   1.358       .  A
N400       C1569   1.447       .  S
C401        C402   1.384       .  A
C401       C1541   1.476       .  S
C402        C403   1.373       .  A
C402        H405   1.082       .  S
C403        C404   1.381       .  A
C403        H406   1.082       .  S
C404       C1513   1.474       .  S
O407       Cu415   2.013       .  S
O407        C417   1.279       .  A
O408       Cu415   2.001       .  S
O408        C418   1.277   1_556  A
O409       Cu415   2.004       .  S
O409        C419   1.277       .  A
O410       Cu415   2.009       .  S
O410        C420   1.278   1_556  A
O411       Cu416   2.019       .  S
O411        C420   1.279   1_556  A
O412       Cu416   2.016       .  S
O412        C419   1.278       .  A
O413       Cu416   2.012       .  S
O413        C418   1.279   1_556  A
O414       Cu416   2.011       .  S
O414        C417   1.278       .  A
Cu415      Cu416   2.370       .  S
C417       C1750   1.483       .  S
C418       C1666   1.479       .  S
C419       C1834   1.475       .  S
C420       C1582   1.490       .  S
N421        C425   1.352       .  A
N421        C422   1.351       .  A
N421       C1485   1.442       .  S
C422        C423   1.383       .  A
C422       C1429   1.473       .  S
C423        C424   1.379       .  A
C423        H426   1.082       .  S
C424        C425   1.383       .  A
C424        H427   1.082       .  S
C425       C1457   1.473       .  S
N428        C432   1.357       .  A
N428        C429   1.358       .  A
N428       C1401   1.442       .  S
C429        C430   1.383       .  A
C429       C1345   1.484       .  S
C430        C431   1.378       .  A
C430        H433   1.082       .  S
C431        C432   1.382       .  A
C431        H434   1.082       .  S
C432       C1373   1.482       .  S
N435        C439   1.357       .  A
N435        C436   1.358       .  A
N435       C1317   1.440       .  S
C436        C437   1.384       .  A
C436       C1289   1.487       .  S
C437        C438   1.376       .  A
C437        H440   1.082       .  S
C438        C439   1.383       .  A
C438        H441   1.082       .  S
C439       C1274   1.488       .  S
N442        C446   1.358       .  A
N442        C443   1.362       .  A
N442       C1233   1.444       .  S
C443        C444   1.386       .  A
C443       C1218   1.491       .  S
C444        C445   1.377       .  A
C444        H447   1.082       .  S
C445        C446   1.381       .  A
C445        H448   1.082       .  S
C446       C1177   1.483       .  S
O449       Cu457   2.015       .  S
O449        C459   1.278   1_655  A
O450       Cu457   2.020       .  S
O450        C460   1.278       .  A
O451       Cu457   2.010       .  S
O451        C461   1.279   1_655  A
O452       Cu457   2.012       .  S
O452        C462   1.279       .  A
O453       Cu458   2.006       .  S
O453        C462   1.277       .  A
O454       Cu458   2.011       .  S
O454        C461   1.278   1_655  A
O455       Cu458   2.018       .  S
O455        C460   1.279       .  A
O456       Cu458   2.027       .  S
O456        C459   1.281   1_655  A
Cu457      Cu458   2.369       .  S
C459       C1246   1.492       .  S
C460       C1498   1.479       .  S
C461       C1330   1.494       .  S
C462       C1414   1.477       .  S
N463        C467   1.353       .  A
N463        C464   1.354       .  A
N463       C1149   1.438       .  S
C464        C465   1.385       .  A
C464       C1093   1.482       .  S
C465        C466   1.377       .  A
C465        H468   1.082       .  S
C466        C467   1.380       .  A
C466        H469   1.082       .  S
C467       C1121   1.473       .  S
N470        C474   1.352       .  A
N470        C471   1.352       .  A
N470       C1065   1.442       .  S
C471        C472   1.382       .  A
C471       C1009   1.474       .  S
C472        C473   1.378       .  A
C472        H475   1.082       .  S
C473        C474   1.383       .  A
C473        H476   1.082       .  S
C474       C1037   1.471       .  S
N477        C481   1.354       .  A
N477        C478   1.356       .  A
N477        C994   1.445       .  S
C478        C479   1.383       .  A
C478        C925   1.475       .  S
C479        C480   1.374       .  A
C479        H482   1.082       .  S
C480        C481   1.380       .  A
C480        H483   1.082       .  S
C481        C953   1.470       .  S
N484        C488   1.357       .  A
N484        C485   1.357       .  A
N484        C897   1.441       .  S
C485        C486   1.382       .  A
C485        C841   1.483       .  S
C486        C487   1.377       .  A
C486        H489   1.082       .  S
C487        C488   1.383       .  A
C487        H490   1.082       .  S
C488        C869   1.481       .  S
O491       Cu499   2.013   1_455  S
O491        C501   1.279       .  A
O492       Cu499   2.021       .  S
O492        C502   1.280       .  A
O493       Cu499   1.997       .  S
O493        C503   1.276       .  A
O494       Cu499   2.003   1_455  S
O494        C504   1.276       .  A
O495       Cu500   2.021   1_455  S
O495        C504   1.279       .  A
O496       Cu500   2.013       .  S
O496        C503   1.279       .  A
O497       Cu500   1.996       .  S
O497        C502   1.276       .  A
O498       Cu500   2.006   1_455  S
O498        C501   1.277       .  A
Cu499      Cu500   2.371       .  S
C501        C910   1.492       .  S
C502       C1162   1.482       .  S
C503       C1078   1.476       .  S
C504        C981   1.478       .  S
O505       Cu513   1.999       .  S
O505        C515   1.277       .  A
O506       Cu513   2.001       .  S
O506        C516   1.277   1_655  A
O507       Cu513   1.994       .  S
O507        C517   1.277   1_655  A
O508       Cu513   1.981       .  S
O508        C518   1.274       .  A
O509       Cu514   2.017       .  S
O509        C518   1.280       .  A
O510       Cu514   2.006       .  S
O510        C517   1.278   1_655  A
O511       Cu514   2.017       .  S
O511        C516   1.278   1_655  A
O512       Cu514   2.015       .  S
O512        C515   1.278       .  A
Cu513      Cu514   2.370       .  S
C515       C1106   1.476       .  S
C516       C1261   1.478       .  S
C517        C938   1.486       .  S
C518       C1442   1.483       .  S
O519       Cu527   2.003       .  S
O519        C529   1.278       .  A
O520       Cu527   1.995       .  S
O520        C530   1.276       .  A
O521       Cu527   2.005       .  S
O521        C531   1.277       .  A
O522       Cu527   2.004       .  S
O522        C532   1.278       .  A
O523       Cu528   2.011       .  S
O523        C532   1.278       .  A
O524       Cu528   2.006       .  S
O524        C531   1.278       .  A
O525       Cu528   1.992       .  S
O525        C530   1.277       .  A
O526       Cu528   1.988       .  S
O526        C529   1.275       .  A
Cu527      Cu528   2.372       .  S
C529       C4662   1.478       .  S
C530       C1050   1.470       .  S
C531       C4578   1.473       .  S
C532       C1134   1.484       .  S
O533       Cu541   2.002       .  S
O533        C543   1.278       .  A
O534       Cu541   2.017       .  S
O534        C544   1.279       .  A
O535       Cu541   2.005       .  S
O535        C545   1.277       .  A
O536       Cu541   2.008       .  S
O536        C546   1.278       .  A
O537       Cu542   2.003       .  S
O537        C546   1.277       .  A
O538       Cu542   1.997       .  S
O538        C545   1.276       .  A
O539       Cu542   1.987       .  S
O539        C544   1.276       .  A
O540       Cu542   1.999       .  S
O540        C543   1.277       .  A
Cu541      Cu542   2.373       .  S
C543       C3893   1.482       .  S
C544        C966   1.483       .  S
C545       C3990   1.467       .  S
C546        C882   1.472       .  S
O547       Cu555   2.001       .  S
O547        C557   1.277       .  A
O548       Cu555   1.992       .  S
O548        C558   1.277       .  A
O549       Cu555   1.985       .  S
O549        C559   1.275       .  A
O550       Cu555   1.987       .  S
O550        C560   1.275       .  A
O551       Cu556   2.010       .  S
O551        C560   1.277       .  A
O552       Cu556   2.010       .  S
O552        C559   1.279       .  A
O553       Cu556   2.026       .  S
O553        C558   1.279       .  A
O554       Cu556   2.022       .  S
O554        C557   1.280       .  A
Cu555      Cu556   2.370       .  S
C557       C1386   1.483       .  S
C558       C1638   1.480       .  S
C559       C1470   1.485       .  S
C560       C1554   1.462       .  S
O561       Cu569   2.017       .  S
O561        C571   1.279       .  A
O562       Cu569   2.031       .  S
O562        C572   1.280       .  A
O563       Cu569   2.010       .  S
O563        C573   1.278       .  A
O564       Cu569   2.019       .  S
O564        C574   1.278       .  A
O565       Cu570   2.010       .  S
O565        C574   1.278       .  A
O566       Cu570   2.020       .  S
O566        C573   1.279       .  A
O567       Cu570   2.005       .  S
O567        C572   1.278       .  A
O568       Cu570   2.011       .  S
O568        C571   1.278       .  A
Cu569      Cu570   2.370       .  S
C571       C2310   1.483       .  S
C572       C1205   1.493       .  S
C573       C2226   1.483       .  S
C574       C1302   1.481       .  S
O575       Cu583   1.981       .  S
O575        C585   1.275       .  A
O576       Cu583   1.994   1_554  S
O576        C586   1.277       .  A
O577       Cu583   2.012   1_554  S
O577        C587   1.277       .  A
O578       Cu583   2.008       .  S
O578        C588   1.278       .  A
O579       Cu584   1.994       .  S
O579        C588   1.275       .  A
O580       Cu584   1.991   1_554  S
O580        C587   1.276       .  A
O581       Cu584   1.997   1_554  S
O581        C586   1.277       .  A
O582       Cu584   2.009       .  S
O582        C585   1.279       .  A
Cu583      Cu584   2.375       .  S
C585       C1765   1.477       .  S
C586       C2534   1.479       .  S
C587       C1597   1.466       .  S
C588       C2702   1.466       .  S
O589       Cu597   1.991       .  S
O589        C599   1.275       .  A
O590       Cu597   1.996       .  S
O590        C600   1.278       .  A
O591       Cu597   2.004       .  S
O591        C601   1.278       .  A
O592       Cu597   2.000       .  S
O592        C602   1.276       .  A
O593       Cu598   1.983       .  S
O593        C602   1.276       .  A
O594       Cu598   1.996       .  S
O594        C601   1.277       .  A
O595       Cu598   1.986       .  S
O595        C600   1.275       .  A
O596       Cu598   1.991       .  S
O596        C599   1.276       .  A
Cu597      Cu598   2.375       .  S
C599       C2058   1.463       .  S
C600       C1806   1.479       .  S
C601       C2142   1.474       .  S
C602       C1722   1.465       .  S
O603       Cu611   2.001       .  S
O603        C613   1.277       .  A
O604       Cu611   2.011   1_455  S
O604        C614   1.278       .  A
O605       Cu611   1.995   1_455  S
O605        C615   1.276       .  A
O606       Cu611   1.988       .  S
O606        C616   1.275       .  A
O607       Cu612   2.021       .  S
O607        C616   1.279       .  A
O608       Cu612   2.020   1_455  S
O608        C615   1.280       .  A
O609       Cu612   1.998   1_455  S
O609        C614   1.277       .  A
O610       Cu612   2.010       .  S
O610        C613   1.278       .  A
Cu611      Cu612   2.371       .  S
C613       C2114   1.484       .  S
C614        C854   1.475       .  S
C615       C1933   1.491       .  S
C616       C1022   1.469       .  S
O617       Cu625   2.003       .  S
O617        C627   1.278       .  A
O618       Cu625   2.004       .  S
O618        C628   1.278       .  A
O619       Cu625   1.995       .  S
O619        C629   1.275       .  A
O620       Cu625   1.990       .  S
O620        C630   1.276       .  A
O621       Cu626   2.024       .  S
O621        C630   1.279       .  A
O622       Cu626   2.027       .  S
O622        C629   1.280       .  A
O623       Cu626   2.001       .  S
O623        C628   1.277       .  A
O624       Cu626   2.000       .  S
O624        C627   1.276       .  A
Cu625      Cu626   2.372       .  S
C627       C2478   1.471       .  S
C628       C1890   1.475       .  S
C629       C2394   1.477       .  S
C630       C1974   1.474       .  S
O631       Cu639   2.018       .  S
O631        C641   1.279       .  A
O632       Cu639   2.018       .  S
O632        C642   1.280       .  A
O633       Cu639   1.996       .  S
O633        C643   1.275       .  A
O634       Cu639   2.002       .  S
O634        C644   1.276       .  A
O635       Cu640   2.006       .  S
O635        C644   1.278       .  A
O636       Cu640   2.012       .  S
O636        C643   1.278       .  A
O637       Cu640   2.008       .  S
O637        C642   1.278       .  A
O638       Cu640   2.001       .  S
O638        C641   1.277       .  A
Cu639      Cu640   2.371       .  S
C641       C2269   1.477       .  S
C642       C2786   1.494   1_554  S
C643       C2437   1.470   1_554  S
C644       C2618   1.472       .  S
O645       Cu653   2.001       .  S
O645        C655   1.277       .  A
O646       Cu653   2.002       .  S
O646        C656   1.277       .  A
O647       Cu653   2.010       .  S
O647        C657   1.279       .  A
O648       Cu653   2.006       .  S
O648        C658   1.278       .  A
O649       Cu654   2.016       .  S
O649        C658   1.279       .  A
O650       Cu654   2.011       .  S
O650        C657   1.279       .  A
O651       Cu654   2.002       .  S
O651        C656   1.276       .  A
O652       Cu654   2.001       .  S
O652        C655   1.277       .  A
Cu653      Cu654   2.371       .  S
C655       C2730   1.474       .  S
C656       C2982   1.466       .  S
C657       C2814   1.492       .  S
C658       C2898   1.488       .  S
O659       Cu667   1.991       .  S
O659        C669   1.276       .  A
O660       Cu667   1.999       .  S
O660        C670   1.278       .  A
O661       Cu667   1.986       .  S
O661        C671   1.276       .  A
O662       Cu667   1.973       .  S
O662        C672   1.275       .  A
O663       Cu668   2.013       .  S
O663        C672   1.278       .  A
O664       Cu668   2.016       .  S
O664        C671   1.279       .  A
O665       Cu668   2.015       .  S
O665        C670   1.278       .  A
O666       Cu668   2.009       .  S
O666        C669   1.278       .  A
Cu667      Cu668   2.369       .  S
C669       C3570   1.470       .  S
C670       C2646   1.487       .  S
C671       C3654   1.486       .  S
C672       C2562   1.481       .  S
O673       Cu681   2.000   1_565  S
O673        C683   1.278       .  A
O674       Cu681   1.993       .  S
O674        C684   1.277       .  A
O675       Cu681   1.997       .  S
O675        C685   1.276       .  A
O676       Cu681   1.992   1_565  S
O676        C686   1.275       .  A
O677       Cu682   2.018   1_565  S
O677        C686   1.279       .  A
O678       Cu682   2.019       .  S
O678        C685   1.280       .  A
O679       Cu682   2.008       .  S
O679        C684   1.277       .  A
O680       Cu682   2.001   1_565  S
O680        C683   1.276       .  A
Cu681      Cu682   2.372       .  S
C683       C4046   1.485       .  S
C684       C2941   1.475       .  S
C685       C3865   1.486       .  S
C686       C3109   1.470       .  S
O687       Cu695   2.020       .  S
O687        C697   1.279       .  A
O688       Cu695   2.018       .  S
O688        C698   1.278       .  A
O689       Cu695   2.013       .  S
O689        C699   1.277       .  A
O690       Cu695   2.017       .  S
O690        C700   1.279       .  A
O691       Cu696   1.998       .  S
O691        C700   1.277       .  A
O692       Cu696   1.995       .  S
O692        C699   1.276       .  A
O693       Cu696   1.991       .  S
O693        C698   1.276       .  A
O694       Cu696   1.995       .  S
O694        C697   1.276       .  A
Cu695      Cu696   2.372       .  S
C697       C3150   1.476       .  S
C698       C3402   1.473       .  S
C699       C3053   1.470       .  S
C700       C3486   1.478       .  S
O701       Cu709   2.014   1_554  S
O701        C711   1.278       .  A
O702       Cu709   2.001       .  S
O702        C712   1.277       .  A
O703       Cu709   2.016       .  S
O703        C713   1.279       .  A
O704       Cu709   2.017   1_554  S
O704        C714   1.279       .  A
O705       Cu710   2.006   1_554  S
O705        C714   1.278       .  A
O706       Cu710   2.003       .  S
O706        C713   1.277       .  A
O707       Cu710   2.006       .  S
O707        C712   1.276       .  A
O708       Cu710   1.992   1_554  S
O708        C711   1.276       .  A
Cu709      Cu710   2.375       .  S
C711       C3277   1.468       .  S
C712       C2366   1.466       .  S
C713       C3458   1.475       .  S
C714       C2198   1.482       .  S
O715       Cu723   2.003       .  S
O715        C725   1.277       .  A
O716       Cu723   1.996       .  S
O716        C726   1.278       .  A
O717       Cu723   1.985       .  S
O717        C727   1.275       .  A
O718       Cu723   2.002       .  S
O718        C728   1.277       .  A
O719       Cu724   2.001       .  S
O719        C728   1.278       .  A
O720       Cu724   2.002       .  S
O720        C727   1.276       .  A
O721       Cu724   2.008       .  S
O721        C726   1.277       .  A
O722       Cu724   2.007       .  S
O722        C725   1.277       .  A
Cu723      Cu724   2.373       .  S
C725       C3822   1.473       .  S
C726       C3221   1.484       .  S
C727       C3738   1.460       .  S
C728       C3305   1.479       .  S
O729       Cu737   2.020   1_565  S
O729        C739   1.279       .  A
O730       Cu737   2.020       .  S
O730        C740   1.280       .  A
O731       Cu737   1.991       .  S
O731        C741   1.275       .  A
O732       Cu737   1.986   1_565  S
O732        C742   1.275       .  A
O733       Cu738   2.000   1_565  S
O733        C742   1.277       .  A
O734       Cu738   2.001       .  S
O734        C741   1.277       .  A
O735       Cu738   1.998       .  S
O735        C740   1.277       .  A
O736       Cu738   2.009   1_565  S
O736        C739   1.279       .  A
Cu737      Cu738   2.369       .  S
C739       C4130   1.496       .  S
C740       C3626   1.491       .  S
C741       C3949   1.466       .  S
C742       C3781   1.475       .  S
O743       Cu751   2.005       .  S
O743        C753   1.278       .  A
O744       Cu751   2.001       .  S
O744        C754   1.277       .  A
O745       Cu751   1.993       .  S
O745        C755   1.277       .  A
O746       Cu751   2.005       .  S
O746        C756   1.278       .  A
O747       Cu752   2.023       .  S
O747        C756   1.280       .  A
O748       Cu752   2.023       .  S
O748        C755   1.280       .  A
O749       Cu752   1.993       .  S
O749        C754   1.275       .  A
O750       Cu752   2.001       .  S
O750        C753   1.277       .  A
Cu751      Cu752   2.370       .  S
C753       C4313   1.479       .  S
C754       C4061   1.466       .  S
C755       C4242   1.488       .  S
C756       C4158   1.495       .  S
O757       Cu765   1.995   1_455  S
O757        C767   1.277       .  A
O758       Cu765   2.003       .  S
O758        C768   1.277       .  A
O759       Cu765   2.007       .  S
O759        C769   1.278       .  A
O760       Cu765   2.013   1_455  S
O760        C770   1.279       .  A
O761       Cu766   2.019   1_455  S
O761        C770   1.279       .  A
O762       Cu766   2.023       .  S
O762        C769   1.279       .  A
O763       Cu766   2.012       .  S
O763        C768   1.279       .  A
O764       Cu766   2.022   1_455  S
O764        C767   1.279       .  A
Cu765      Cu766   2.371       .  S
C767       C4298   1.481       .  S
C768       C1358   1.483       .  S
C769       C4453   1.481       .  S
C770       C1190   1.488       .  S
O771       Cu779   2.028       .  S
O771        C781   1.280       .  A
O772       Cu779   2.023       .  S
O772        C782   1.280       .  A
O773       Cu779   2.023       .  S
O773        C783   1.279       .  A
O774       Cu779   2.030       .  S
O774        C784   1.281       .  A
O775       Cu780   2.003       .  S
O775        C784   1.278       .  A
O776       Cu780   2.009       .  S
O776        C783   1.278       .  A
O777       Cu780   2.007       .  S
O777        C782   1.278       .  A
O778       Cu780   2.000       .  S
O778        C781   1.277       .  A
Cu779      Cu780   2.368       .  S
C781       C4494   1.478       .  S
C782       C4746   1.490       .  S
C783       C4410   1.483       .  S
C784       C4830   1.496       .  S
O785       Cu793   1.999       .  S
O785        C795   1.277       .  A
O786       Cu793   1.998       .  S
O786        C796   1.277       .  A
O787       Cu793   1.991       .  S
O787        C797   1.276       .  A
O788       Cu793   1.991       .  S
O788        C798   1.277       .  A
O789       Cu794   2.005       .  S
O789        C798   1.277       .  A
O790       Cu794   2.005       .  S
O790        C797   1.277       .  A
O791       Cu794   2.013       .  S
O791        C796   1.279       .  A
O792       Cu794   2.012       .  S
O792        C795   1.278       .  A
Cu793      Cu794   2.371       .  S
C795       C3542   1.477   1_565  S
C796       C4802   1.480       .  S
C797       C3710   1.473       .  S
C798       C4634   1.485   1_565  S
O799       Cu807   2.001       .  S
O799        C809   1.275       .  A
O800       Cu807   1.999       .  S
O800        C810   1.277       .  A
O801       Cu807   2.028       .  S
O801        C811   1.280       .  A
O802       Cu807   2.030       .  S
O802        C812   1.281       .  A
O803       Cu808   2.001       .  S
O803        C812   1.278       .  A
O804       Cu808   1.996       .  S
O804        C811   1.277       .  A
O805       Cu808   2.015       .  S
O805        C810   1.279       .  A
O806       Cu808   2.009       .  S
O806        C809   1.277       .  A
Cu807      Cu808   2.370       .  S
C809       C2030   1.464   1_455  S
C810       C4214   1.488       .  S
C811       C1849   1.481       .  S
C812       C4382   1.494   1_455  S
O813       Cu821   2.022   1_545  S
O813        C823   1.279       .  A
O814       Cu821   2.009       .  S
O814        C824   1.279       .  A
O815       Cu821   2.018       .  S
O815        C825   1.278       .  A
O816       Cu821   2.024   1_545  S
O816        C826   1.280       .  A
O817       Cu822   2.000   1_545  S
O817        C826   1.276       .  A
O818       Cu822   1.998       .  S
O818        C825   1.277       .  A
O819       Cu822   2.010       .  S
O819        C824   1.278       .  A
O820       Cu822   2.003   1_545  S
O820        C823   1.277       .  A
Cu821      Cu822   2.370       .  S
C823       C2870   1.481       .  S
C824       C4718   1.490       .  S
C825       C3038   1.476       .  S
C826       C4550   1.484       .  S
O827       Cu835   1.998   1_554  S
O827        C837   1.277       .  A
O828       Cu835   1.996       .  S
O828        C838   1.278       .  A
O829       Cu835   1.985       .  S
O829        C839   1.275       .  A
O830       Cu835   1.981   1_554  S
O830        C840   1.275       .  A
O831       Cu836   2.022   1_554  S
O831        C840   1.280       .  A
O832       Cu836   2.019       .  S
O832        C839   1.278       .  A
O833       Cu836   1.993       .  S
O833        C838   1.275       .  A
O834       Cu836   1.993   1_554  S
O834        C837   1.275       .  A
Cu835      Cu836   2.376       .  S
C837       C3193   1.461       .  S
C838       C1694   1.477       .  S
C839       C3374   1.468       .  S
C840       C1526   1.474       .  S
C841        C842   1.411       .  A
C841        C846   1.402       .  A
C842        C843   1.403       .  A
C842        N847   1.436       .  S
C843        C844   1.404       .  A
C843        H848   1.084       .  S
C844        C845   1.413       .  A
C844        C849   1.488       .  S
C845        C846   1.406       .  A
C845        N850   1.438       .  S
C846        H851   1.084       .  S
N847        H867   1.045       .  S
N847        H868   1.046       .  S
C849        C852   1.406       .  A
C849        C856   1.413       .  A
N850        H865   1.046       .  S
N850        H866   1.046       .  S
C852        C853   1.407       .  A
C852        H857   1.083       .  S
C853        C854   1.411       .  A
C853        N858   1.438       .  S
C854        C855   1.401       .  A
C855        C856   1.401       .  A
C855        H859   1.084       .  S
C856        N860   1.438       .  S
N858        H861   1.046       .  S
N858        H862   1.046   1_455  S
N860        H863   1.046       .  S
N860        H864   1.046       .  S
C869        C870   1.410       .  A
C869        C874   1.402       .  A
C870        C871   1.407       .  A
C870        N875   1.437       .  S
C871        C872   1.406       .  A
C871        H876   1.083       .  S
C872        C873   1.412       .  A
C872        C877   1.488       .  S
C873        C874   1.403       .  A
C873        N878   1.438       .  S
C874        H879   1.084       .  S
N875        H895   1.046       .  S
N875        H896   1.046       .  S
C877        C880   1.405       .  A
C877        C884   1.414       .  A
N878        H893   1.046       .  S
N878        H894   1.046       .  S
C880        C881   1.401       .  A
C880        H885   1.084       .  S
C881        C882   1.406       .  A
C881        N886   1.432       .  S
C882        C883   1.402       .  A
C883        C884   1.406       .  A
C883        H887   1.084       .  S
C884        N888   1.438       .  S
N886        H889   1.046       .  S
N886        H890   1.046       .  S
N888        H891   1.046       .  S
N888        H892   1.046       .  S
C897        C898   1.410       .  A
C897        C902   1.403       .  A
C898        C899   1.405       .  A
C898        N903   1.437       .  S
C899        C900   1.403       .  A
C899        H904   1.084       .  S
C900        C901   1.408       .  A
C900        C905   1.480       .  S
C901        C902   1.403       .  A
C901        N906   1.437       .  S
C902        H907   1.083       .  S
N903        H923   1.045       .  S
N903        H924   1.046       .  S
C905        C908   1.399       .  A
C905        C912   1.407       .  A
N906        H921   1.046       .  S
N906        H922   1.046       .  S
C908        C909   1.406       .  A
C908        H913   1.084       .  S
C909        C910   1.420       .  A
C909        N914   1.438       .  S
C910        C911   1.409       .  A
C911        C912   1.405       .  A
C911        H915   1.083       .  S
C912        N916   1.438       .  S
N914        H917   1.046       .  S
N914        H918   1.046       .  S
N916        H919   1.046       .  S
N916        H920   1.046       .  S
C925        C926   1.407       .  A
C925        C930   1.401       .  A
C926        C927   1.400       .  A
C926        N931   1.432       .  S
C927        C928   1.404       .  A
C927        H932   1.084       .  S
C928        C929   1.413       .  A
C928        C933   1.484       .  S
C929        C930   1.403       .  A
C929        N934   1.438       .  S
C930        H935   1.084       .  S
N931        H951   1.046       .  S
N931        H952   1.045       .  S
C933        C936   1.401       .  A
C933        C940   1.410       .  A
N934        H949   1.046       .  S
N934        H950   1.045       .  S
C936        C937   1.404       .  A
C936        H941   1.083       .  S
C937        C938   1.417       .  A
C937        N942   1.438       .  S
C938        C939   1.408       .  A
C939        C940   1.402       .  A
C939        H943   1.083       .  S
C940        N944   1.439       .  S
N942        H945   1.046       .  S
N942        H946   1.046       .  S
N944        H947   1.046       .  S
N944        H948   1.046       .  S
C953        C954   1.409       .  A
C953        C958   1.402       .  A
C954        C955   1.396       .  A
C954        N959   1.432       .  S
C955        C956   1.402       .  A
C955        H960   1.084       .  S
C956        C957   1.407       .  A
C956        C961   1.472       .  S
C957        C958   1.403       .  A
C957        N962   1.437       .  S
C958        H963   1.084       .  S
N959        H979   1.045       .  S
N959        H980   1.043       .  S
C961        C964   1.400       .  A
C961        C968   1.405       .  A
N962        H977   1.046       .  S
N962        H978   1.046       .  S
C964        C965   1.407       .  A
C964        H969   1.084       .  S
C965        C966   1.417       .  A
C965        N970   1.438       .  S
C966        C967   1.407       .  A
C967        C968   1.400       .  A
C967        H971   1.083       .  S
C968        N972   1.438       .  S
N970        H973   1.046       .  S
N970        H974   1.046       .  S
N972        H975   1.046       .  S
N972        H976   1.046       .  S
C981        C982   1.409       .  A
C981        C986   1.403       .  A
C982        C983   1.407       .  A
C982        N987   1.438       .  S
C983        C984   1.406       .  A
C983        H988   1.083       .  S
C984        C985   1.414       .  A
C984        C989   1.494       .  S
C985        C986   1.406       .  A
C985        N990   1.438       .  S
C986        H991   1.084       .  S
N987       H1007   1.046   1_455  S
N987       H1008   1.046       .  S
C989        C992   1.406       .  A
C989        C996   1.414       .  A
N990       H1005   1.046       .  S
N990       H1006   1.045       .  S
C992        C993   1.406       .  A
C992        H997   1.083       .  S
C993        C994   1.410       .  A
C993        N998   1.437       .  S
C994        C995   1.402       .  A
C995        C996   1.406       .  A
C995        H999   1.082       .  S
C996       N1000   1.438       .  S
N998       H1001   1.045       .  S
N998       H1002   1.045       .  S
N1000      H1003   1.046       .  S
N1000      H1004   1.046       .  S
C1009      C1010   1.416       .  A
C1009      C1014   1.401       .  A
C1010      C1011   1.398       .  A
C1010      N1015   1.438       .  S
C1011      C1012   1.401       .  A
C1011      H1016   1.084       .  S
C1012      C1013   1.411       .  A
C1012      C1017   1.480       .  S
C1013      C1014   1.403       .  A
C1013      N1018   1.438       .  S
C1014      H1019   1.084       .  S
N1015      H1035   1.042       .  S
N1015      H1036   1.046       .  S
C1017      C1020   1.402       .  A
C1017      C1024   1.411       .  A
N1018      H1033   1.046       .  S
N1018      H1034   1.046       .  S
C1020      C1021   1.401       .  A
C1020      H1025   1.084       .  S
C1021      C1022   1.409       .  A
C1021      N1026   1.438       .  S
C1022      C1023   1.402       .  A
C1023      C1024   1.407       .  A
C1023      H1027   1.084       .  S
C1024      N1028   1.438       .  S
N1026      H1029   1.046       .  S
N1026      H1030   1.046       .  S
N1028      H1031   1.046       .  S
N1028      H1032   1.046       .  S
C1037      C1038   1.416       .  A
C1037      C1042   1.401       .  A
C1038      C1039   1.398       .  A
C1038      N1043   1.439       .  S
C1039      C1040   1.403       .  A
C1039      H1044   1.084       .  S
C1040      C1041   1.409       .  A
C1040      C1045   1.478       .  S
C1041      C1042   1.401       .  A
C1041      N1046   1.438       .  S
C1042      H1047   1.084       .  S
N1043      H1063   1.042       .  S
N1043      H1064   1.046       .  S
C1045      C1048   1.403       .  A
C1045      C1052   1.410       .  A
N1046      H1061   1.046       .  S
N1046      H1062   1.046       .  S
C1048      C1049   1.402       .  A
C1048      H1053   1.084       .  S
C1049      C1050   1.411       .  A
C1049      N1054   1.438       .  S
C1050      C1051   1.403       .  A
C1051      C1052   1.400       .  A
C1051      H1055   1.084       .  S
C1052      N1056   1.438       .  S
N1054      H1057   1.046       .  S
N1054      H1058   1.046       .  S
N1056      H1059   1.046       .  S
N1056      H1060   1.046       .  S
C1065      C1066   1.408       .  A
C1065      C1070   1.403       .  A
C1066      C1067   1.402       .  A
C1066      N1071   1.431       .  S
C1067      C1068   1.402       .  A
C1067      H1072   1.084       .  S
C1068      C1069   1.408       .  A
C1068      C1073   1.477       .  S
C1069      C1070   1.403       .  A
C1069      N1074   1.437       .  S
C1070      H1075   1.083       .  S
N1071      H1091   1.046       .  S
N1071      H1092   1.045       .  S
C1073      C1076   1.401       .  A
C1073      C1080   1.408       .  A
N1074      H1089   1.046       .  S
N1074      H1090   1.045       .  S
C1076      C1077   1.404       .  A
C1076      H1081   1.084       .  S
C1077      C1078   1.412       .  A
C1077      N1082   1.438       .  S
C1078      C1079   1.404       .  A
C1079      C1080   1.405       .  A
C1079      H1083   1.084       .  S
C1080      N1084   1.437       .  S
N1082      H1085   1.046       .  S
N1082      H1086   1.046       .  S
N1084      H1087   1.046       .  S
N1084      H1088   1.045       .  S
C1093      C1094   1.409       .  A
C1093      C1098   1.404       .  A
C1094      C1095   1.401       .  A
C1094      N1099   1.432       .  S
C1095      C1096   1.400       .  A
C1095      H1100   1.084       .  S
C1096      C1097   1.409       .  A
C1096      C1101   1.475       .  S
C1097      C1098   1.405       .  A
C1097      N1102   1.438       .  S
C1098      H1103   1.082       .  S
N1099      H1119   1.046       .  S
N1099      H1120   1.046       .  S
C1101      C1104   1.401       .  A
C1101      C1108   1.407       .  A
N1102      H1117   1.046       .  S
N1102      H1118   1.045       .  S
C1104      C1105   1.408       .  A
C1104      H1109   1.084       .  S
C1105      C1106   1.413       .  A
C1105      N1110   1.438       .  S
C1106      C1107   1.403       .  A
C1107      C1108   1.401       .  A
C1107      H1111   1.084       .  S
C1108      N1112   1.439       .  S
N1110      H1113   1.046       .  S
N1110      H1114   1.046       .  S
N1112      H1115   1.046       .  S
N1112      H1116   1.045       .  S
C1121      C1122   1.416       .  A
C1121      C1126   1.402       .  A
C1122      C1123   1.402       .  A
C1122      N1127   1.438       .  S
C1123      C1124   1.402       .  A
C1123      H1128   1.084       .  S
C1124      C1125   1.408       .  A
C1124      C1129   1.475       .  S
C1125      C1126   1.396       .  A
C1125      N1130   1.432       .  S
C1126      H1131   1.084       .  S
N1127      H1147   1.043       .  S
N1127      H1148   1.045       .  S
C1129      C1132   1.400       .  A
C1129      C1136   1.404       .  A
N1130      H1145   1.045       .  S
N1130      H1146   1.045       .  S
C1132      C1133   1.406       .  A
C1132      H1137   1.084       .  S
C1133      C1134   1.416       .  A
C1133      N1138   1.438       .  S
C1134      C1135   1.408       .  A
C1135      C1136   1.404       .  A
C1135      H1139   1.084       .  S
C1136      N1140   1.438       .  S
N1138      H1141   1.045       .  S
N1138      H1142   1.046       .  S
N1140      H1143   1.045       .  S
N1140      H1144   1.045       .  S
C1149      C1150   1.414       .  A
C1149      C1154   1.400       .  A
C1150      C1151   1.402       .  A
C1150      N1155   1.437       .  S
C1151      C1152   1.406       .  A
C1151      H1156   1.084       .  S
C1152      C1153   1.413       .  A
C1152      C1157   1.489       .  S
C1153      C1154   1.403       .  A
C1153      N1158   1.438       .  S
C1154      H1159   1.083       .  S
N1155      H1175   1.043       .  S
N1155      H1176   1.046       .  S
C1157      C1160   1.405       .  A
C1157      C1164   1.411       .  A
N1158      H1173   1.046       .  S
N1158      H1174   1.045       .  S
C1160      C1161   1.406       .  A
C1160      H1165   1.084       .  S
C1161      C1162   1.411       .  A
C1161      N1166   1.438       .  S
C1162      C1163   1.406       .  A
C1163      C1164   1.406       .  A
C1163      H1167   1.084       .  S
C1164      N1168   1.438       .  S
N1166      H1169   1.046       .  S
N1166      H1170   1.046       .  S
N1168      H1171   1.046       .  S
N1168      H1172   1.046       .  S
C1177      C1178   1.410       .  A
C1177      C1182   1.401       .  A
C1178      C1179   1.408       .  A
C1178      N1183   1.438       .  S
C1179      C1180   1.406       .  A
C1179      H1184   1.083       .  S
C1180      C1181   1.413       .  A
C1180      C1185   1.492       .  S
C1181      C1182   1.405       .  A
C1181      N1186   1.438       .  S
C1182      H1187   1.083       .  S
N1183      H1203   1.046       .  S
N1183      H1204   1.046       .  S
C1185      C1188   1.404       .  A
C1185      C1192   1.412       .  A
N1186      H1201   1.046       .  S
N1186      H1202   1.046       .  S
C1188      C1189   1.407       .  A
C1188      H1193   1.084       .  S
C1189      C1190   1.415       .  A
C1189      N1194   1.438       .  S
C1190      C1191   1.406       .  A
C1191      C1192   1.408       .  A
C1191      H1195   1.083       .  S
C1192      N1196   1.438       .  S
N1194      H1197   1.046       .  S
N1194      H1198   1.046       .  S
N1196      H1199   1.046       .  S
N1196      H1200   1.046       .  S
C1205      C1206   1.417       .  A
C1205      C1210   1.408       .  A
C1206      C1207   1.411       .  A
C1206      N1211   1.437       .  S
C1207      C1208   1.401       .  A
C1207      H1212   1.084       .  S
C1208      C1209   1.409       .  A
C1208      C1213   1.483       .  S
C1209      C1210   1.406       .  A
C1209      N1214   1.440       .  S
C1210      H1215   1.083       .  S
N1211      H1231   1.046       .  S
N1211      H1232   1.046       .  S
C1213      C1216   1.404       .  A
C1213      C1220   1.409       .  A
N1214      H1229   1.046       .  S
N1214      H1230   1.044       .  S
C1216      C1217   1.411       .  A
C1216      H1221   1.083       .  S
C1217      C1218   1.414       .  A
C1217      N1222   1.436       .  S
C1218      C1219   1.405       .  A
C1219      C1220   1.403       .  A
C1219      H1223   1.084       .  S
C1220      N1224   1.439       .  S
N1222      H1225   1.045       .  S
N1222      H1226   1.045       .  S
N1224      H1227   1.046       .  S
N1224      H1228   1.044       .  S
C1233      C1234   1.411       .  A
C1233      C1238   1.403       .  A
C1234      C1235   1.411       .  A
C1234      N1239   1.436       .  S
C1235      C1236   1.405       .  A
C1235      H1240   1.083       .  S
C1236      C1237   1.409       .  A
C1236      C1241   1.485       .  S
C1237      C1238   1.403       .  A
C1237      N1242   1.438       .  S
C1238      H1243   1.083       .  S
N1239      H1259   1.045       .  S
N1239      H1260   1.045       .  S
C1241      C1244   1.401       .  A
C1241      C1248   1.409       .  A
N1242      H1257   1.046       .  S
N1242      H1258   1.046       .  S
C1244      C1245   1.409       .  A
C1244      H1249   1.084       .  S
C1245      C1246   1.418       .  A
C1245      N1250   1.438       .  S
C1246      C1247   1.407       .  A
C1247      C1248   1.409       .  A
C1247      H1251   1.083       .  S
C1248      N1252   1.438       .  S
N1250      H1253   1.046       .  S
N1250      H1254   1.046   1_455  S
N1252      H1255   1.045       .  S
N1252      H1256   1.046       .  S
C1261      C1262   1.412       .  A
C1261      C1266   1.402       .  A
C1262      C1263   1.409       .  A
C1262      N1267   1.438       .  S
C1263      C1264   1.407       .  A
C1263      H1268   1.083       .  S
C1264      C1265   1.413       .  A
C1264      C1269   1.491       .  S
C1265      C1266   1.403       .  A
C1265      N1270   1.438       .  S
C1266      H1271   1.084   1_455  S
N1267      H1287   1.046       .  S
N1267      H1288   1.046       .  S
C1269      C1272   1.404       .  A
C1269      C1276   1.413       .  A
N1270      H1285   1.046       .  S
N1270      H1286   1.045       .  S
C1272      C1273   1.400       .  A
C1272      H1277   1.084       .  S
C1273      C1274   1.408       .  A
C1273      N1278   1.432       .  S
C1274      C1275   1.406       .  A
C1275      C1276   1.409       .  A
C1275      H1279   1.082       .  S
C1276      N1280   1.438       .  S
N1278      H1281   1.046       .  S
N1278      H1282   1.046       .  S
N1280      H1283   1.046       .  S
N1280      H1284   1.045       .  S
C1289      C1290   1.411       .  A
C1289      C1294   1.406       .  A
C1290      C1291   1.400       .  A
C1290      N1295   1.432       .  S
C1291      C1292   1.399       .  A
C1291      H1296   1.084       .  S
C1292      C1293   1.410       .  A
C1292      C1297   1.480       .  S
C1293      C1294   1.410       .  A
C1293      N1298   1.437       .  S
C1294      H1299   1.083       .  S
N1295      H1315   1.045       .  S
N1295      H1316   1.046       .  S
C1297      C1300   1.402       .  A
C1297      C1304   1.407       .  A
N1298      H1313   1.045       .  S
N1298      H1314   1.046       .  S
C1300      C1301   1.410       .  A
C1300      H1305   1.084       .  S
C1301      C1302   1.415       .  A
C1301      N1306   1.438       .  S
C1302      C1303   1.404       .  A
C1303      C1304   1.404       .  A
C1303      H1307   1.084       .  S
C1304      N1308   1.438       .  S
N1306      H1309   1.046       .  S
N1306      H1310   1.045       .  S
N1308      H1311   1.046       .  S
N1308      H1312   1.045       .  S
C1317      C1318   1.408       .  A
C1317      C1322   1.402       .  A
C1318      C1319   1.406       .  A
C1318      N1323   1.436       .  S
C1319      C1320   1.404       .  A
C1319      H1324   1.084       .  S
C1320      C1321   1.410       .  A
C1320      C1325   1.484       .  S
C1321      C1322   1.404       .  A
C1321      N1326   1.438       .  S
C1322      H1327   1.083       .  S
N1323      H1343   1.046       .  S
N1323      H1344   1.045       .  S
C1325      C1328   1.400       .  A
C1325      C1332   1.408       .  A
N1326      H1341   1.046       .  S
N1326      H1342   1.046       .  S
C1328      C1329   1.406       .  A
C1328      H1333   1.084       .  S
C1329      C1330   1.420       .  A
C1329      N1334   1.438       .  S
C1330      C1331   1.409       .  A
C1331      C1332   1.406       .  A
C1331      H1335   1.083       .  S
C1332      N1336   1.438       .  S
N1334      H1337   1.046       .  S
N1334      H1338   1.046       .  S
N1336      H1339   1.046       .  S
N1336      H1340   1.046       .  S
C1345      C1346   1.412       .  A
C1345      C1350   1.405       .  A
C1346      C1347   1.405       .  A
C1346      N1351   1.437       .  S
C1347      C1348   1.401       .  A
C1347      H1352   1.084       .  S
C1348      C1349   1.408       .  A
C1348      C1353   1.479       .  S
C1349      C1350   1.405       .  A
C1349      N1354   1.438       .  S
C1350      H1355   1.084       .  S
N1351      H1371   1.045       .  S
N1351      H1372   1.046       .  S
C1353      C1356   1.400       .  A
C1353      C1360   1.408       .  A
N1354      H1369   1.046       .  S
N1354      H1370   1.046       .  S
C1356      C1357   1.402       .  A
C1356      H1361   1.084       .  S
C1357      C1358   1.413       .  A
C1357      N1362   1.433       .  S
C1358      C1359   1.406       .  A
C1359      C1360   1.406       .  A
C1359      H1363   1.083       .  S
C1360      N1364   1.437       .  S
N1362      H1365   1.046       .  S
N1362      H1366   1.046       .  S
N1364      H1367   1.046       .  S
N1364      H1368   1.046       .  S
C1373      C1374   1.409       .  A
C1373      C1378   1.403       .  A
C1374      C1375   1.403       .  A
C1374      N1379   1.432       .  S
C1375      C1376   1.402       .  A
C1375      H1380   1.084       .  S
C1376      C1377   1.410       .  A
C1376      C1381   1.482       .  S
C1377      C1378   1.406       .  A
C1377      N1382   1.437       .  S
C1378      H1383   1.084       .  S
N1379      H1399   1.046       .  S
N1379      H1400   1.045       .  S
C1381      C1384   1.401       .  A
C1381      C1388   1.409       .  A
N1382      H1397   1.046       .  S
N1382      H1398   1.046       .  S
C1384      C1385   1.406       .  A
C1384      H1389   1.084       .  S
C1385      C1386   1.415       .  A
C1385      N1390   1.438       .  S
C1386      C1387   1.405       .  A
C1387      C1388   1.406       .  A
C1387      H1391   1.083       .  S
C1388      N1392   1.438       .  S
N1390      H1393   1.046       .  S
N1390      H1394   1.046       .  S
N1392      H1395   1.046       .  S
N1392      H1396   1.046       .  S
C1401      C1402   1.410       .  A
C1401      C1406   1.403       .  A
C1402      C1403   1.405       .  A
C1402      N1407   1.437       .  S
C1403      C1404   1.404       .  A
C1403      H1408   1.084       .  S
C1404      C1405   1.411       .  A
C1404      C1409   1.485       .  S
C1405      C1406   1.404       .  A
C1405      N1410   1.438       .  S
C1406      H1411   1.083       .  S
N1407      H1427   1.045       .  S
N1407      H1428   1.045       .  S
C1409      C1412   1.404       .  A
C1409      C1416   1.410       .  A
N1410      H1425   1.046       .  S
N1410      H1426   1.046       .  S
C1412      C1413   1.407       .  A
C1412      H1417   1.084       .  S
C1413      C1414   1.413       .  A
C1413      N1418   1.438       .  S
C1414      C1415   1.403       .  A
C1415      C1416   1.404       .  A
C1415      H1419   1.084       .  S
C1416      N1420   1.438       .  S
N1418      H1421   1.046       .  S
N1418      H1422   1.045       .  S
N1420      H1423   1.046       .  S
N1420      H1424   1.046       .  S
C1429      C1430   1.411       .  A
C1429      C1434   1.401       .  A
C1430      C1431   1.405       .  A
C1430      N1435   1.437       .  S
C1431      C1432   1.400       .  A
C1431      H1436   1.084       .  S
C1432      C1433   1.406       .  A
C1432      C1437   1.469       .  S
C1433      C1434   1.398       .  A
C1433      N1438   1.438       .  S
C1434      H1439   1.083       .  S
N1435      H1455   1.046       .  S
N1435      H1456   1.046       .  S
C1437      C1440   1.395       .  A
C1437      C1444   1.406       .  A
N1438      H1453   1.046       .  S
N1438      H1454   1.046       .  S
C1440      C1441   1.396       .  A
C1440      H1445   1.084       .  S
C1441      C1442   1.416       .  A
C1441      N1446   1.433       .  S
C1442      C1443   1.408       .  A
C1443      C1444   1.406       .  A
C1443      H1447   1.083       .  S
C1444      N1448   1.438       .  S
N1446      H1449   1.046       .  S
N1446      H1450   1.046       .  S
N1448      H1451   1.045       .  S
N1448      H1452   1.046       .  S
C1457      C1458   1.411       .  A
C1457      C1462   1.402       .  A
C1458      C1459   1.404       .  A
C1458      N1463   1.438       .  S
C1459      C1460   1.400       .  A
C1459      H1464   1.084       .  S
C1460      C1461   1.405       .  A
C1460      C1465   1.468       .  S
C1461      C1462   1.399       .  A
C1461      N1466   1.438       .  S
C1462      H1467   1.082       .  S
N1463      H1483   1.045       .  S
N1463      H1484   1.046       .  S
C1465      C1468   1.395       .  A
C1465      C1472   1.404       .  A
N1466      H1481   1.046       .  S
N1466      H1482   1.045       .  S
C1468      C1469   1.399       .  A
C1468      H1473   1.084       .  S
C1469      C1470   1.420       .  A
C1469      N1474   1.438       .  S
C1470      C1471   1.410       .  A
C1471      C1472   1.405       .  A
C1471      H1475   1.083       .  S
C1472      N1476   1.438       .  S
N1474      H1477   1.046       .  S
N1474      H1478   1.046       .  S
N1476      H1479   1.046       .  S
N1476      H1480   1.045       .  S
C1485      C1486   1.416       .  A
C1485      C1490   1.402       .  A
C1486      C1487   1.404       .  A
C1486      N1491   1.438       .  S
C1487      C1488   1.402       .  A
C1487      H1492   1.084       .  S
C1488      C1489   1.409       .  A
C1488      C1493   1.482       .  S
C1489      C1490   1.406       .  A
C1489      N1494   1.437       .  S
C1490      H1495   1.083       .  S
N1491      H1511   1.043       .  S
N1491      H1512   1.046       .  S
C1493      C1496   1.402       .  A
C1493      C1500   1.410       .  A
N1494      H1509   1.046       .  S
N1494      H1510   1.045       .  S
C1496      C1497   1.407       .  A
C1496      H1501   1.084       .  S
C1497      C1498   1.410       .  A
C1497      N1502   1.437       .  S
C1498      C1499   1.404       .  A
C1499      C1500   1.410       .  A
C1499      H1503   1.084       .  S
C1500      N1504   1.438       .  S
N1502      H1505   1.046       .  S
N1502      H1506   1.046       .  S
N1504      H1507   1.046       .  S
N1504      H1508   1.045       .  S
C1513      C1514   1.407       .  A
C1513      C1518   1.401       .  A
C1514      C1515   1.402       .  A
C1514      N1519   1.438       .  S
C1515      C1516   1.404       .  A
C1515      H1520   1.084       .  S
C1516      C1517   1.412       .  A
C1516      C1521   1.484       .  S
C1517      C1518   1.404       .  A
C1517      N1522   1.438       .  S
C1518      H1523   1.084       .  S
N1519      H1539   1.046       .  S
N1519      H1540   1.046       .  S
C1521      C1524   1.405       .  A
C1521      C1528   1.411       .  A
N1522      H1537   1.046       .  S
N1522      H1538   1.046       .  S
C1524      C1525   1.406       .  A
C1524      H1529   1.084       .  S
C1525      C1526   1.411       .  A
C1525      N1530   1.438       .  S
C1526      C1527   1.403       .  A
C1527      C1528   1.401       .  A
C1527      H1531   1.084       .  S
C1528      N1532   1.438       .  S
N1530      H1533   1.046       .  S
N1530      H1534   1.046   1_554  S
N1532      H1535   1.046       .  S
N1532      H1536   1.045       .  S
C1541      C1542   1.412       .  A
C1541      C1546   1.403       .  A
C1542      C1543   1.400       .  A
C1542      N1547   1.439       .  S
C1543      C1544   1.398       .  A
C1543      H1548   1.084       .  S
C1544      C1545   1.407       .  A
C1544      C1549   1.470       .  S
C1545      C1546   1.405       .  A
C1545      N1550   1.437       .  S
C1546      H1551   1.083       .  S
N1547      H1567   1.045       .  S
N1547      H1568   1.046       .  S
C1549      C1552   1.400       .  A
C1549      C1556   1.408       .  A
N1550      H1565   1.046       .  S
N1550      H1566   1.046       .  S
C1552      C1553   1.403       .  A
C1552      H1557   1.084       .  S
C1553      C1554   1.408       .  A
C1553      N1558   1.438       .  S
C1554      C1555   1.400       .  A
C1555      C1556   1.403       .  A
C1555      H1559   1.084       .  S
C1556      N1560   1.437       .  S
N1558      H1561   1.046       .  S
N1558      H1562   1.045       .  S
N1560      H1563   1.046       .  S
N1560      H1564   1.046       .  S
C1569      C1570   1.420       .  A
C1569      C1574   1.405       .  A
C1570      C1571   1.406       .  A
C1570      N1575   1.438       .  S
C1571      C1572   1.402       .  A
C1571      H1576   1.084       .  S
C1572      C1573   1.406       .  A
C1572      C1577   1.481       .  S
C1573      C1574   1.403       .  A
C1573      N1578   1.438       .  S
C1574      H1579   1.083       .  S
N1575      H1595   1.042       .  S
N1575      H1596   1.046       .  S
C1577      C1580   1.400       .  A
C1577      C1584   1.407       .  A
N1578      H1593   1.046       .  S
N1578      H1594   1.045       .  S
C1580      C1581   1.408       .  A
C1580      H1585   1.084       .  S
C1581      C1582   1.417       .  A
C1581      N1586   1.438       .  S
C1582      C1583   1.409       .  A
C1583      C1584   1.406       .  A
C1583      H1587   1.083       .  S
C1584      N1588   1.438       .  S
N1586      H1589   1.046       .  S
N1586      H1590   1.045       .  S
N1588      H1591   1.046       .  S
N1588      H1592   1.046       .  S
C1597      C1598   1.408       .  A
C1597      C1602   1.403       .  A
C1598      C1599   1.398       .  A
C1598      N1603   1.438       .  S
C1599      C1600   1.399       .  A
C1599      H1604   1.084       .  S
C1600      C1601   1.409       .  A
C1600      C1605   1.471       .  S
C1601      C1602   1.408       .  A
C1601      N1606   1.437       .  S
C1602      H1607   1.084       .  S
N1603      H1623   1.046       .  S
N1603      H1624   1.046       .  S
C1605      C1608   1.401       .  A
C1605      C1612   1.408       .  A
N1606      H1621   1.046       .  S
N1606      H1622   1.045       .  S
C1608      C1609   1.396       .  A
C1608      H1613   1.084       .  S
C1609      C1610   1.411       .  A
C1609      N1614   1.432       .  S
C1610      C1611   1.401       .  A
C1611      C1612   1.405       .  A
C1611      H1615   1.083       .  S
C1612      N1616   1.437       .  S
N1614      H1617   1.043       .  S
N1614      H1618   1.046       .  S
N1616      H1619   1.046       .  S
N1616      H1620   1.045       .  S
C1625      C1626   1.415       .  A
C1625      C1630   1.406       .  A
C1626      C1627   1.404       .  A
C1626      N1631   1.438       .  S
C1627      C1628   1.399       .  A
C1627      H1632   1.084       .  S
C1628      C1629   1.409       .  A
C1628      C1633   1.479       .  S
C1629      C1630   1.406       .  A
C1629      N1634   1.438       .  S
C1630      H1635   1.081       .  S
N1631      H1651   1.045       .  S
N1631      H1652   1.046       .  S
C1633      C1636   1.403       .  A
C1633      C1640   1.407       .  A
N1634      H1649   1.046       .  S
N1634      H1650   1.046       .  S
C1636      C1637   1.410       .  A
C1636      H1641   1.084       .  S
C1637      C1638   1.414       .  A
C1637      N1642   1.437       .  S
C1638      C1639   1.404       .  A
C1639      C1640   1.401       .  A
C1639      H1643   1.084       .  S
C1640      N1644   1.438       .  S
N1642      H1645   1.046       .  S
N1642      H1646   1.045       .  S
N1644      H1647   1.046       .  S
N1644      H1648   1.046       .  S
C1653      C1654   1.404       .  A
C1653      C1658   1.399       .  A
C1654      C1655   1.399       .  A
C1654      N1659   1.431       .  S
C1655      C1656   1.403       .  A
C1655      H1660   1.084       .  S
C1656      C1657   1.414       .  A
C1656      C1661   1.485       .  S
C1657      C1658   1.407       .  A
C1657      N1662   1.437       .  S
C1658      H1663   1.083       .  S
N1659      H1679   1.046       .  S
N1659      H1680   1.045       .  S
C1661      C1664   1.403       .  A
C1661      C1668   1.412       .  A
N1662      H1677   1.046       .  S
N1662      H1678   1.046       .  S
C1664      C1665   1.404       .  A
C1664      H1669   1.084       .  S
C1665      C1666   1.412       .  A
C1665      N1670   1.438       .  S
C1666      C1667   1.404       .  A
C1667      C1668   1.405       .  A
C1667      H1671   1.084       .  S
C1668      N1672   1.438       .  S
N1670      H1673   1.046       .  S
N1670      H1674   1.046       .  S
N1672      H1675   1.046       .  S
N1672      H1676   1.046       .  S
C1681      C1682   1.410       .  A
C1681      C1686   1.401       .  A
C1682      C1683   1.400       .  A
C1682      N1687   1.438       .  S
C1683      C1684   1.400       .  A
C1683      H1688   1.084       .  S
C1684      C1685   1.413       .  A
C1684      C1689   1.466       .  S
C1685      C1686   1.396       .  A
C1685      N1690   1.439       .  S
C1686      H1691   1.081       .  S
N1687      H1707   1.045       .  S
N1687      H1708   1.046       .  S
C1689      C1692   1.397       .  A
C1689      C1696   1.405       .  A
N1690      H1705   1.046       .  S
N1690      H1706   1.043       .  S
C1692      C1693   1.403       .  A
C1692      H1697   1.084       .  S
C1693      C1694   1.418       .  A
C1693      N1698   1.438       .  S
C1694      C1695   1.405       .  A
C1695      C1696   1.399       .  A
C1695      H1699   1.084       .  S
C1696      N1700   1.438       .  S
N1698      H1701   1.046       .  S
N1698      H1702   1.045       .  S
N1700      H1703   1.046       .  S
N1700      H1704   1.046       .  S
C1709      C1710   1.409       .  A
C1709      C1714   1.401       .  A
C1710      C1711   1.398       .  A
C1710      N1715   1.438       .  S
C1711      C1712   1.402       .  A
C1711      H1716   1.084       .  S
C1712      C1713   1.410       .  A
C1712      C1717   1.476       .  S
C1713      C1714   1.402       .  A
C1713      N1718   1.438       .  S
C1714      H1719   1.080       .  S
N1715      H1735   1.046       .  S
N1715      H1736   1.046       .  S
C1717      C1720   1.404       .  A
C1717      C1724   1.410       .  A
N1718      H1733   1.046       .  S
N1718      H1734   1.046       .  S
C1720      C1721   1.404       .  A
C1720      H1725   1.083       .  S
C1721      C1722   1.409       .  A
C1721      N1726   1.438       .  S
C1722      C1723   1.401       .  A
C1723      C1724   1.397       .  A
C1723      H1727   1.084       .  S
C1724      N1728   1.439       .  S
N1726      H1729   1.046       .  S
N1726      H1730   1.046       .  S
N1728      H1731   1.046       .  S
N1728      H1732   1.046       .  S
C1737      C1738   1.409       .  A
C1737      C1742   1.401       .  A
C1738      C1739   1.408       .  A
C1738      N1743   1.436       .  S
C1739      C1740   1.403       .  A
C1739      H1744   1.084       .  S
C1740      C1741   1.409       .  A
C1740      C1745   1.482       .  S
C1741      C1742   1.404       .  A
C1741      N1746   1.438       .  S
C1742      H1747   1.083       .  S
N1743      H1763   1.044       .  S
N1743      H1764   1.045       .  S
C1745      C1748   1.401       .  A
C1745      C1752   1.410       .  A
N1746      H1761   1.046       .  S
N1746      H1762   1.046       .  S
C1748      C1749   1.402       .  A
C1748      H1753   1.084       .  S
C1749      C1750   1.411       .  A
C1749      N1754   1.432       .  S
C1750      C1751   1.406       .  A
C1751      C1752   1.408       .  A
C1751      H1755   1.084       .  S
C1752      N1756   1.438       .  S
N1754      H1757   1.046       .  S
N1754      H1758   1.045       .  S
N1756      H1759   1.046       .  S
N1756      H1760   1.046       .  S
C1765      C1766   1.414       .  A
C1765      C1770   1.407       .  A
C1766      C1767   1.403       .  A
C1766      N1771   1.438       .  S
C1767      C1768   1.400       .  A
C1767      H1772   1.084       .  S
C1768      C1769   1.403       .  A
C1768      C1773   1.467       .  S
C1769      C1770   1.399       .  A
C1769      N1774   1.438       .  S
C1770      H1775   1.083       .  S
N1771      H1791   1.046       .  S
N1771      H1792   1.046       .  S
C1773      C1776   1.399       .  A
C1773      C1780   1.407       .  A
N1774      H1789   1.046       .  S
N1774      H1790   1.046       .  S
C1776      C1777   1.400       .  A
C1776      H1781   1.084       .  S
C1777      C1778   1.409       .  A
C1777      N1782   1.438       .  S
C1778      C1779   1.401       .  A
C1779      C1780   1.401       .  A
C1779      H1783   1.084       .  S
C1780      N1784   1.437       .  S
N1782      H1785   1.045       .  S
N1782      H1786   1.046       .  S
N1784      H1787   1.046       .  S
N1784      H1788   1.046       .  S
C1793      C1794   1.404       .  A
C1793      C1798   1.403       .  A
C1794      C1795   1.394       .  A
C1794      N1799   1.432       .  S
C1795      C1796   1.401       .  A
C1795      H1800   1.084       .  S
C1796      C1797   1.409       .  A
C1796      C1801   1.471       .  S
C1797      C1798   1.403       .  A
C1797      N1802   1.437       .  S
C1798      H1803   1.084       .  S
N1799      H1819   1.046       .  S
N1799      H1820   1.046       .  S
C1801      C1804   1.400       .  A
C1801      C1808   1.406       .  A
N1802      H1817   1.046       .  S
N1802      H1818   1.046       .  S
C1804      C1805   1.402       .  A
C1804      H1809   1.084       .  S
C1805      C1806   1.417       .  A
C1805      N1810   1.438       .  S
C1806      C1807   1.405       .  A
C1807      C1808   1.398       .  A
C1807      H1811   1.083       .  S
C1808      N1812   1.438       .  S
N1810      H1813   1.046       .  S
N1810      H1814   1.046       .  S
N1812      H1815   1.045       .  S
N1812      H1816   1.046       .  S
C1821      C1822   1.409       .  A
C1821      C1826   1.402       .  A
C1822      C1823   1.407       .  A
C1822      N1827   1.436       .  S
C1823      C1824   1.406       .  A
C1823      H1828   1.083       .  S
C1824      C1825   1.414       .  A
C1824      C1829   1.493       .  S
C1825      C1826   1.405       .  A
C1825      N1830   1.438       .  S
C1826      H1831   1.083       .  S
N1827      H1847   1.045       .  S
N1827      H1848   1.046       .  S
C1829      C1832   1.405       .  A
C1829      C1836   1.415       .  A
N1830      H1845   1.046       .  S
N1830      H1846   1.046       .  S
C1832      C1833   1.405       .  A
C1832      H1837   1.083       .  S
C1833      C1834   1.410       .  A
C1833      N1838   1.438       .  S
C1834      C1835   1.401       .  A
C1835      C1836   1.407       .  A
C1835      H1839   1.084       .  S
C1836      N1840   1.438       .  S
N1838      H1841   1.046       .  S
N1838      H1842   1.046       .  S
N1840      H1843   1.046       .  S
N1840      H1844   1.046       .  S
C1849      C1850   1.412       .  A
C1849      C1854   1.404       .  A
C1850      C1851   1.409       .  A
C1850      N1855   1.437       .  S
C1851      C1852   1.407       .  A
C1851      H1856   1.083       .  S
C1852      C1853   1.412       .  A
C1852      C1857   1.490       .  S
C1853      C1854   1.402       .  A
C1853      N1858   1.438       .  S
C1854      H1859   1.084       .  S
N1855      H1875   1.045       .  S
N1855      H1876   1.046       .  S
C1857      C1860   1.405       .  A
C1857      C1864   1.414       .  A
N1858      H1873   1.046       .  S
N1858      H1874   1.046       .  S
C1860      C1861   1.398       .  A
C1860      H1865   1.084       .  S
C1861      C1862   1.405       .  A
C1861      N1866   1.432       .  S
C1862      C1863   1.404       .  A
C1863      C1864   1.408       .  A
C1863      H1867   1.083       .  S
C1864      N1868   1.437       .  S
N1866      H1869   1.045       .  S
N1866      H1870   1.046       .  S
N1868      H1871   1.046       .  S
N1868      H1872   1.045       .  S
C1877      C1878   1.412       .  A
C1877      C1882   1.401       .  A
C1878      C1879   1.406       .  A
C1878      N1883   1.437       .  S
C1879      C1880   1.403       .  A
C1879      H1884   1.084       .  S
C1880      C1881   1.409       .  A
C1880      C1885   1.480       .  S
C1881      C1882   1.401       .  A
C1881      N1886   1.438       .  S
C1882      H1887   1.084       .  S
N1883      H1903   1.045       .  S
N1883      H1904   1.046       .  S
C1885      C1888   1.402       .  A
C1885      C1892   1.410       .  A
N1886      H1901   1.046       .  S
N1886      H1902   1.046       .  S
C1888      C1889   1.400       .  A
C1888      H1893   1.084       .  S
C1889      C1890   1.409       .  A
C1889      N1894   1.433       .  S
C1890      C1891   1.404       .  A
C1891      C1892   1.404       .  A
C1891      H1895   1.084       .  S
C1892      N1896   1.438       .  S
N1894      H1897   1.046       .  S
N1894      H1898   1.046       .  S
N1896      H1899   1.046       .  S
N1896      H1900   1.046       .  S
C1905      C1906   1.410       .  A
C1905      C1910   1.402       .  A
C1906      C1907   1.406       .  A
C1906      N1911   1.436       .  S
C1907      C1908   1.403       .  A
C1907      H1912   1.084       .  S
C1908      C1909   1.409       .  A
C1908      C1913   1.479       .  S
C1909      C1910   1.401       .  A
C1909      N1914   1.438       .  S
C1910      H1915   1.083       .  S
N1911      H1931   1.045       .  S
N1911      H1932   1.046       .  S
C1913      C1916   1.399       .  A
C1913      C1920   1.407       .  A
N1914      H1929   1.046       .  S
N1914      H1930   1.046       .  S
C1916      C1917   1.402       .  A
C1916      H1921   1.084       .  S
C1917      C1918   1.419       .  A
C1917      N1922   1.438       .  S
C1918      C1919   1.410       .  A
C1919      C1920   1.405       .  A
C1919      H1923   1.083       .  S
C1920      N1924   1.438       .  S
N1922      H1925   1.046       .  S
N1922      H1926   1.046       .  S
N1924      H1927   1.046       .  S
N1924      H1928   1.046       .  S
C1933      C1934   1.419       .  A
C1933      C1938   1.408       .  A
C1934      C1935   1.403       .  A
C1934      N1939   1.438       .  S
C1935      C1936   1.400       .  A
C1935      H1940   1.084       .  S
C1936      C1937   1.410       .  A
C1936      C1941   1.485       .  S
C1937      C1938   1.408       .  A
C1937      N1942   1.438       .  S
C1938      H1943   1.083       .  S
N1939      H1959   1.046       .  S
N1939      H1960   1.046       .  S
C1941      C1944   1.404       .  A
C1941      C1948   1.411       .  A
N1942      H1957   1.046       .  S
N1942      H1958   1.046       .  S
C1944      C1945   1.407       .  A
C1944      H1949   1.084       .  S
C1945      C1946   1.411       .  A
C1945      N1950   1.438       .  S
C1946      C1947   1.400       .  A
C1947      C1948   1.403       .  A
C1947      H1951   1.081       .  S
C1948      N1952   1.438       .  S
N1950      H1953   1.046       .  S
N1950      H1954   1.044       .  S
N1952      H1955   1.046       .  S
N1952      H1956   1.045       .  S
C1961      C1962   1.408       .  A
C1961      C1966   1.404       .  A
C1962      C1963   1.402       .  A
C1962      N1967   1.438       .  S
C1963      C1964   1.404       .  A
C1963      H1968   1.084       .  S
C1964      C1965   1.410       .  A
C1964      C1969   1.483       .  S
C1965      C1966   1.408       .  A
C1965      N1970   1.437       .  S
C1966      H1971   1.083       .  S
N1967      H1987   1.045       .  S
N1967      H1988   1.046       .  S
C1969      C1972   1.405       .  A
C1969      C1976   1.410       .  A
N1970      H1985   1.046       .  S
N1970      H1986   1.046       .  S
C1972      C1973   1.410       .  A
C1972      H1977   1.083       .  S
C1973      C1974   1.412       .  A
C1973      N1978   1.438       .  S
C1974      C1975   1.401       .  A
C1975      C1976   1.400       .  A
C1975      H1979   1.084       .  S
C1976      N1980   1.438       .  S
N1978      H1981   1.046       .  S
N1978      H1982   1.046       .  S
N1980      H1983   1.046       .  S
N1980      H1984   1.046       .  S
C1989      C1990   1.407       .  A
C1989      C1994   1.401       .  A
C1990      C1991   1.403       .  A
C1990      N1995   1.436       .  S
C1991      C1992   1.401       .  A
C1991      H1996   1.084       .  S
C1992      C1993   1.411       .  A
C1992      C1997   1.478       .  S
C1993      C1994   1.406       .  A
C1993      N1998   1.438       .  S
C1994      H1999   1.082       .  S
N1995      H2015   1.044       .  S
N1995      H2016   1.046       .  S
C1997      C2000   1.402       .  A
C1997      C2004   1.408       .  A
N1998      H2013   1.046       .  S
N1998      H2014   1.044       .  S
C2000      C2001   1.407       .  A
C2000      H2005   1.084       .  S
C2001      C2002   1.413       .  A
C2001      N2006   1.438       .  S
C2002      C2003   1.406       .  A
C2003      C2004   1.406       .  A
C2003      H2007   1.084       .  S
C2004      N2008   1.439       .  S
N2006      H2009   1.046       .  S
N2006      H2010   1.046       .  S
N2008      H2011   1.046       .  S
N2008      H2012   1.044       .  S
C2017      C2018   1.410       .  A
C2017      C2022   1.403       .  A
C2018      C2019   1.400       .  A
C2018      N2023   1.438       .  S
C2019      C2020   1.399       .  A
C2019      H2024   1.084       .  S
C2020      C2021   1.410       .  A
C2020      C2025   1.476       .  S
C2021      C2022   1.407       .  A
C2021      N2026   1.437       .  S
C2022      H2027   1.084       .  S
N2023      H2043   1.046       .  S
N2023      H2044   1.046       .  S
C2025      C2028   1.402       .  A
C2025      C2032   1.410       .  A
N2026      H2041   1.046       .  S
N2026      H2042   1.046       .  S
C2028      C2029   1.406       .  A
C2028      H2033   1.084       .  S
C2029      C2030   1.409       .  A
C2029      N2034   1.438   1_655  S
C2030      C2031   1.399       .  A
C2031      C2032   1.402       .  A
C2031      H2035   1.084       .  S
C2032      N2036   1.438       .  S
N2034      H2037   1.046       .  S
N2034      H2038   1.045       .  S
N2036      H2039   1.046       .  S
N2036      H2040   1.045       .  S
C2045      C2046   1.408       .  A
C2045      C2050   1.402       .  A
C2046      C2047   1.399       .  A
C2046      N2051   1.438       .  S
C2047      C2048   1.402       .  A
C2047      H2052   1.084       .  S
C2048      C2049   1.409       .  A
C2048      C2053   1.474       .  S
C2049      C2050   1.403       .  A
C2049      N2054   1.438       .  S
C2050      H2055   1.084       .  S
N2051      H2071   1.045       .  S
N2051      H2072   1.046       .  S
C2053      C2056   1.402       .  A
C2053      C2060   1.410       .  A
N2054      H2069   1.046       .  S
N2054      H2070   1.046       .  S
C2056      C2057   1.402       .  A
C2056      H2061   1.084       .  S
C2057      C2058   1.410       .  A
C2057      N2062   1.438       .  S
C2058      C2059   1.400       .  A
C2059      C2060   1.399       .  A
C2059      H2063   1.084       .  S
C2060      N2064   1.438       .  S
N2062      H2065   1.046       .  S
N2062      H2066   1.046       .  S
N2064      H2067   1.046       .  S
N2064      H2068   1.046       .  S
C2073      C2074   1.411       .  A
C2073      C2078   1.403       .  A
C2074      C2075   1.405       .  A
C2074      N2079   1.436       .  S
C2075      C2076   1.400       .  A
C2075      H2080   1.084       .  S
C2076      C2077   1.409       .  A
C2076      C2081   1.480       .  S
C2077      C2078   1.408       .  A
C2077      N2082   1.437       .  S
C2078      H2083   1.083       .  S
N2079      H2099   1.046       .  S
N2079      H2100   1.046       .  S
C2081      C2084   1.402       .  A
C2081      C2088   1.408       .  A
N2082      H2097   1.046       .  S
N2082      H2098   1.046       .  S
C2084      C2085   1.407       .  A
C2084      H2089   1.084       .  S
C2085      C2086   1.413       .  A
C2085      N2090   1.438       .  S
C2086      C2087   1.406       .  A
C2087      C2088   1.406       .  A
C2087      H2091   1.084       .  S
C2088      N2092   1.437       .  S
N2090      H2093   1.046       .  S
N2090      H2094   1.046   1_655  S
N2092      H2095   1.046       .  S
N2092      H2096   1.045       .  S
C2101      C2102   1.411       .  A
C2101      C2106   1.401       .  A
C2102      C2103   1.402       .  A
C2102      N2107   1.437       .  S
C2103      C2104   1.401       .  A
C2103      H2108   1.084       .  S
C2104      C2105   1.416       .  A
C2104      C2109   1.474       .  S
C2105      C2106   1.400       .  A
C2105      N2110   1.439       .  S
C2106      H2111   1.084       .  S
N2107      H2127   1.045       .  S
N2107      H2128   1.046       .  S
C2109      C2112   1.398       .  A
C2109      C2116   1.407       .  A
N2110      H2125   1.046       .  S
N2110      H2126   1.043       .  S
C2112      C2113   1.398       .  A
C2112      H2117   1.084       .  S
C2113      C2114   1.413       .  A
C2113      N2118   1.432       .  S
C2114      C2115   1.409       .  A
C2115      C2116   1.408       .  A
C2115      H2119   1.083       .  S
C2116      N2120   1.438       .  S
N2118      H2121   1.046       .  S
N2118      H2122   1.046       .  S
N2120      H2123   1.046       .  S
N2120      H2124   1.045       .  S
C2129      C2130   1.411       .  A
C2129      C2134   1.405       .  A
C2130      C2131   1.402       .  A
C2130      N2135   1.431       .  S
C2131      C2132   1.401       .  A
C2131      H2136   1.084       .  S
C2132      C2133   1.406       .  A
C2132      C2137   1.474       .  S
C2133      C2134   1.402       .  A
C2133      N2138   1.438       .  S
C2134      H2139   1.084       .  S
N2135      H2155   1.046       .  S
N2135      H2156   1.045       .  S
C2137      C2140   1.401       .  A
C2137      C2144   1.407       .  A
N2138      H2153   1.046       .  S
N2138      H2154   1.046       .  S
C2140      C2141   1.399       .  A
C2140      H2145   1.084       .  S
C2141      C2142   1.409       .  A
C2141      N2146   1.433       .  S
C2142      C2143   1.405       .  A
C2143      C2144   1.405       .  A
C2143      H2147   1.084       .  S
C2144      N2148   1.437       .  S
N2146      H2149   1.046       .  S
N2146      H2150   1.046       .  S
N2148      H2151   1.046       .  S
N2148      H2152   1.046       .  S
C2157      C2158   1.406       .  A
C2157      C2162   1.400       .  A
C2158      C2159   1.399       .  A
C2158      N2163   1.431       .  S
C2159      C2160   1.402       .  A
C2159      H2164   1.084       .  S
C2160      C2161   1.412       .  A
C2160      C2165   1.479       .  S
C2161      C2162   1.404       .  A
C2161      N2166   1.438       .  S
C2162      H2167   1.083       .  S
N2163      H2183   1.046       .  S
N2163      H2184   1.045       .  S
C2165      C2168   1.401       .  A
C2165      C2172   1.410       .  A
N2166      H2181   1.046       .  S
N2166      H2182   1.046       .  S
C2168      C2169   1.403       .  A
C2168      H2173   1.084       .  S
C2169      C2170   1.413       .  A
C2169      N2174   1.439       .  S
C2170      C2171   1.402       .  A
C2171      C2172   1.404       .  A
C2171      H2175   1.084       .  S
C2172      N2176   1.438       .  S
N2174      H2177   1.046       .  S
N2174      H2178   1.045       .  S
N2176      H2179   1.046       .  S
N2176      H2180   1.046       .  S
C2185      C2186   1.412       .  A
C2185      C2190   1.408       .  A
C2186      C2187   1.405       .  A
C2186      N2191   1.437       .  S
C2187      C2188   1.401       .  A
C2187      H2192   1.084       .  S
C2188      C2189   1.408       .  A
C2188      C2193   1.484       .  S
C2189      C2190   1.408       .  A
C2189      N2194   1.438       .  S
C2190      H2195   1.081       .  S
N2191      H2211   1.046       .  S
N2191      H2212   1.046       .  S
C2193      C2196   1.403       .  A
C2193      C2200   1.409       .  A
N2194      H2209   1.046       .  S
N2194      H2210   1.046       .  S
C2196      C2197   1.411       .  A
C2196      H2201   1.084       .  S
C2197      C2198   1.415       .  A
C2197      N2202   1.438       .  S
C2198      C2199   1.403       .  A
C2199      C2200   1.403       .  A
C2199      H2203   1.084       .  S
C2200      N2204   1.438       .  S
N2202      H2205   1.046       .  S
N2202      H2206   1.046       .  S
N2204      H2207   1.045       .  S
N2204      H2208   1.046       .  S
C2213      C2214   1.413       .  A
C2213      C2218   1.405       .  A
C2214      C2215   1.409       .  A
C2214      N2219   1.436       .  S
C2215      C2216   1.405       .  A
C2215      H2220   1.084       .  S
C2216      C2217   1.410       .  A
C2216      C2221   1.490       .  S
C2217      C2218   1.406       .  A
C2217      N2222   1.438       .  S
C2218      H2223   1.084       .  S
N2219      H2239   1.045       .  S
N2219      H2240   1.046       .  S
C2221      C2224   1.405       .  A
C2221      C2228   1.411       .  A
N2222      H2237   1.046       .  S
N2222      H2238   1.046       .  S
C2224      C2225   1.409       .  A
C2224      H2229   1.084       .  S
C2225      C2226   1.412       .  A
C2225      N2230   1.438       .  S
C2226      C2227   1.405       .  A
C2227      C2228   1.407       .  A
C2227      H2231   1.084       .  S
C2228      N2232   1.438       .  S
N2230      H2233   1.046       .  S
N2230      H2234   1.046       .  S
N2232      H2235   1.046       .  S
N2232      H2236   1.046       .  S
C2241      C2242   1.405       .  A
C2241      C2246   1.399       .  A
C2242      C2243   1.398       .  A
C2242      N2247   1.431       .  S
C2243      C2244   1.401       .  A
C2243      H2248   1.084       .  S
C2244      C2245   1.412       .  A
C2244      C2249   1.475       .  S
C2245      C2246   1.402       .  A
C2245      N2250   1.438       .  S
C2246      H2251   1.083       .  S
N2247      H2267   1.046       .  S
N2247      H2268   1.045       .  S
C2249      C2252   1.400       .  A
C2249      C2256   1.411       .  A
N2250      H2265   1.046       .  S
N2250      H2266   1.046       .  S
C2252      C2253   1.399       .  A
C2252      H2257   1.084       .  S
C2253      C2254   1.410       .  A
C2253      N2258   1.438       .  S
C2254      C2255   1.401       .  A
C2255      C2256   1.405       .  A
C2255      H2259   1.084       .  S
C2256      N2260   1.438       .  S
N2258      H2261   1.046       .  S
N2258      H2262   1.045       .  S
N2260      H2263   1.046       .  S
N2260      H2264   1.046       .  S
C2269      C2270   1.408       .  A
C2269      C2274   1.404       .  A
C2270      C2271   1.400       .  A
C2270      N2275   1.433       .  S
C2271      C2272   1.403       .  A
C2271      H2276   1.084       .  S
C2272      C2273   1.413       .  A
C2272      C2277   1.487       .  S
C2273      C2274   1.409       .  A
C2273      N2278   1.438       .  S
C2274      H2279   1.084       .  S
N2275      H2295   1.046       .  S
N2275      H2296   1.046       .  S
C2277      C2280   1.405       .  A
C2277      C2284   1.412       .  A
N2278      H2293   1.046       .  S
N2278      H2294   1.046       .  S
C2280      C2281   1.407       .  A
C2280      H2285   1.083       .  S
C2281      C2282   1.408       .  A
C2281      N2286   1.437       .  S
C2282      C2283   1.400       .  A
C2283      C2284   1.404       .  A
C2283      H2287   1.084       .  S
C2284      N2288   1.438       .  S
N2286      H2289   1.046       .  S
N2286      H2290   1.045       .  S
N2288      H2291   1.046       .  S
N2288      H2292   1.046       .  S
C2297      C2298   1.408       .  A
C2297      C2302   1.401       .  A
C2298      C2299   1.407       .  A
C2298      N2303   1.437       .  S
C2299      C2300   1.406       .  A
C2299      H2304   1.083       .  S
C2300      C2301   1.412       .  A
C2300      C2305   1.489       .  S
C2301      C2302   1.404       .  A
C2301      N2306   1.438       .  S
C2302      H2307   1.083       .  S
N2303      H2323   1.046       .  S
N2303      H2324   1.046       .  S
C2305      C2308   1.405       .  A
C2305      C2312   1.412       .  A
N2306      H2321   1.046       .  S
N2306      H2322   1.046       .  S
C2308      C2309   1.407       .  A
C2308      H2313   1.084       .  S
C2309      C2310   1.413       .  A
C2309      N2314   1.438       .  S
C2310      C2311   1.404       .  A
C2311      C2312   1.406       .  A
C2311      H2315   1.084       .  S
C2312      N2316   1.438       .  S
N2314      H2317   1.046       .  S
N2314      H2318   1.046       .  S
N2316      H2319   1.046       .  S
N2316      H2320   1.046       .  S
C2325      C2326   1.414       .  A
C2325      C2330   1.402       .  A
C2326      C2327   1.399       .  A
C2326      N2331   1.438       .  S
C2327      C2328   1.400       .  A
C2327      H2332   1.084       .  S
C2328      C2329   1.408       .  A
C2328      C2333   1.473       .  S
C2329      C2330   1.404       .  A
C2329      N2334   1.437       .  S
C2330      H2335   1.083       .  S
N2331      H2351   1.043       .  S
N2331      H2352   1.046       .  S
C2333      C2336   1.398       .  A
C2333      C2340   1.406       .  A
N2334      H2349   1.046       .  S
N2334      H2350   1.045       .  S
C2336      C2337   1.406       .  A
C2336      H2341   1.084       .  S
C2337      C2338   1.417       .  A
C2337      N2342   1.438       .  S
C2338      C2339   1.406       .  A
C2339      C2340   1.404       .  A
C2339      H2343   1.084       .  S
C2340      N2344   1.438       .  S
N2342      H2345   1.046       .  S
N2342      H2346   1.045       .  S
N2344      H2347   1.045       .  S
N2344      H2348   1.046       .  S
C2353      C2354   1.407       .  A
C2353      C2358   1.402       .  A
C2354      C2355   1.406       .  A
C2354      N2359   1.437       .  S
C2355      C2356   1.406       .  A
C2355      H2360   1.084       .  S
C2356      C2357   1.410       .  A
C2356      C2361   1.484       .  S
C2357      C2358   1.403       .  A
C2357      N2362   1.438       .  S
C2358      H2363   1.084       .  S
N2359      H2379   1.045       .  S
N2359      H2380   1.046       .  S
C2361      C2364   1.406       .  A
C2361      C2368   1.411       .  A
N2362      H2377   1.046       .  S
N2362      H2378   1.046       .  S
C2364      C2365   1.403       .  A
C2364      H2369   1.084       .  S
C2365      C2366   1.404       .  A
C2365      N2370   1.432       .  S
C2366      C2367   1.401       .  A
C2367      C2368   1.404       .  A
C2367      H2371   1.084       .  S
C2368      N2372   1.438       .  S
N2370      H2373   1.046       .  S
N2370      H2374   1.045       .  S
N2372      H2375   1.046       .  S
N2372      H2376   1.046       .  S
C2381      C2382   1.410       .  A
C2381      C2386   1.403       .  A
C2382      C2383   1.404       .  A
C2382      N2387   1.438       .  S
C2383      C2384   1.404       .  A
C2383      H2388   1.084       .  S
C2384      C2385   1.411       .  A
C2384      C2389   1.485       .  S
C2385      C2386   1.406       .  A
C2385      N2390   1.437       .  S
C2386      H2391   1.083       .  S
N2387      H2407   1.045       .  S
N2387      H2408   1.046       .  S
C2389      C2392   1.404       .  A
C2389      C2396   1.411       .  A
N2390      H2405   1.046       .  S
N2390      H2406   1.046       .  S
C2392      C2393   1.407       .  A
C2392      H2397   1.084       .  S
C2393      C2394   1.411       .  A
C2393      N2398   1.438       .  S
C2394      C2395   1.403       .  A
C2395      C2396   1.405       .  A
C2395      H2399   1.084       .  S
C2396      N2400   1.438       .  S
N2398      H2401   1.046       .  S
N2398      H2402   1.046       .  S
N2400      H2403   1.046       .  S
N2400      H2404   1.046       .  S
C2409      C2410   1.414       .  A
C2409      C2414   1.405       .  A
C2410      C2411   1.405       .  A
C2410      N2415   1.436       .  S
C2411      C2412   1.400       .  A
C2411      H2416   1.084       .  S
C2412      C2413   1.407       .  A
C2412      C2417   1.478       .  S
C2413      C2414   1.406       .  A
C2413      N2418   1.437       .  S
C2414      H2419   1.082       .  S
N2415      H2435   1.045       .  S
N2415      H2436   1.046       .  S
C2417      C2420   1.400       .  A
C2417      C2424   1.408       .  A
N2418      H2433   1.046       .  S
N2418      H2434   1.045       .  S
C2420      C2421   1.405       .  A
C2420      H2425   1.084       .  S
C2421      C2422   1.414       .  A
C2421      N2426   1.438       .  S
C2422      C2423   1.404       .  A
C2423      C2424   1.406       .  A
C2423      H2427   1.084       .  S
C2424      N2428   1.437       .  S
N2426      H2429   1.046       .  S
N2426      H2430   1.046       .  S
N2428      H2431   1.046       .  S
N2428      H2432   1.046       .  S
C2437      C2438   1.410       .  A
C2437      C2442   1.402       .  A
C2438      C2439   1.404       .  A
C2438      N2443   1.438       .  S
C2439      C2440   1.403       .  A
C2439      H2444   1.084       .  S
C2440      C2441   1.411       .  A
C2440      C2445   1.481       .  S
C2441      C2442   1.404       .  A
C2441      N2446   1.438       .  S
C2442      H2447   1.084   1_556  S
N2443      H2463   1.046       .  S
N2443      H2464   1.046       .  S
C2445      C2448   1.402       .  A
C2445      C2452   1.411       .  A
N2446      H2461   1.046   1_556  S
N2446      H2462   1.046       .  S
C2448      C2449   1.401       .  A
C2448      H2453   1.084       .  S
C2449      C2450   1.409       .  A
C2449      N2454   1.438       .  S
C2450      C2451   1.404       .  A
C2451      C2452   1.405       .  A
C2451      H2455   1.083       .  S
C2452      N2456   1.438       .  S
N2454      H2457   1.046       .  S
N2454      H2458   1.046       .  S
N2456      H2459   1.046       .  S
N2456      H2460   1.045       .  S
C2465      C2466   1.410       .  A
C2465      C2470   1.403       .  A
C2466      C2467   1.406       .  A
C2466      N2471   1.436       .  S
C2467      C2468   1.404       .  A
C2467      H2472   1.084       .  S
C2468      C2469   1.409       .  A
C2468      C2473   1.481       .  S
C2469      C2470   1.400       .  A
C2469      N2474   1.438       .  S
C2470      H2475   1.084       .  S
N2471      H2491   1.045       .  S
N2471      H2492   1.046       .  S
C2473      C2476   1.403       .  A
C2473      C2480   1.411       .  A
N2474      H2489   1.046       .  S
N2474      H2490   1.046       .  S
C2476      C2477   1.398       .  A
C2476      H2481   1.084       .  S
C2477      C2478   1.406       .  A
C2477      N2482   1.433       .  S
C2478      C2479   1.403       .  A
C2479      C2480   1.406       .  A
C2479      H2483   1.084       .  S
C2480      N2484   1.438       .  S
N2482      H2485   1.046       .  S
N2482      H2486   1.046       .  S
N2484      H2487   1.046       .  S
N2484      H2488   1.046       .  S
C2493      C2494   1.416       .  A
C2493      C2498   1.403       .  A
C2494      C2495   1.403       .  A
C2494      N2499   1.438       .  S
C2495      C2496   1.402       .  A
C2495      H2500   1.084       .  S
C2496      C2497   1.408       .  A
C2496      C2501   1.480       .  S
C2497      C2498   1.403       .  A
C2497      N2502   1.438       .  S
C2498      H2503   1.083       .  S
N2499      H2519   1.042       .  S
N2499      H2520   1.046       .  S
C2501      C2504   1.398       .  A
C2501      C2508   1.408       .  A
N2502      H2517   1.046       .  S
N2502      H2518   1.046       .  S
C2504      C2505   1.405       .  A
C2504      H2509   1.084       .  S
C2505      C2506   1.421       .  A
C2505      N2510   1.438       .  S
C2506      C2507   1.408       .  A
C2507      C2508   1.406       .  A
C2507      H2511   1.083       .  S
C2508      N2512   1.438       .  S
N2510      H2513   1.046       .  S
N2510      H2514   1.046       .  S
N2512      H2515   1.046       .  S
N2512      H2516   1.046       .  S
C2521      C2522   1.410       .  A
C2521      C2526   1.402       .  A
C2522      C2523   1.403       .  A
C2522      N2527   1.438       .  S
C2523      C2524   1.400       .  A
C2523      H2528   1.084       .  S
C2524      C2525   1.405       .  A
C2524      C2529   1.465       .  S
C2525      C2526   1.398       .  A
C2525      N2530   1.438       .  S
C2526      H2531   1.083       .  S
N2527      H2547   1.046       .  S
N2527      H2548   1.046       .  S
C2529      C2532   1.397       .  A
C2529      C2536   1.404       .  A
N2530      H2545   1.046       .  S
N2530      H2546   1.045       .  S
C2532      C2533   1.400       .  A
C2532      H2537   1.084       .  S
C2533      C2534   1.416       .  A
C2533      N2538   1.438       .  S
C2534      C2535   1.408       .  A
C2535      C2536   1.402       .  A
C2535      H2539   1.083       .  S
C2536      N2540   1.438       .  S
N2538      H2541   1.046       .  S
N2538      H2542   1.044       .  S
N2540      H2543   1.046       .  S
N2540      H2544   1.045       .  S
C2549      C2550   1.416       .  A
C2549      C2554   1.403       .  A
C2550      C2551   1.395       .  A
C2550      N2555   1.437       .  S
C2551      C2552   1.399       .  A
C2551      H2556   1.084       .  S
C2552      C2553   1.405       .  A
C2552      C2557   1.465       .  S
C2553      C2554   1.400       .  A
C2553      N2558   1.438       .  S
C2554      H2559   1.084       .  S
N2555      H2575   1.043       .  S
N2555      H2576   1.046       .  S
C2557      C2560   1.399       .  A
C2557      C2564   1.402       .  A
N2558      H2573   1.046       .  S
N2558      H2574   1.046       .  S
C2560      C2561   1.406       .  A
C2560      H2565   1.084       .  S
C2561      C2562   1.417       .  A
C2561      N2566   1.437       .  S
C2562      C2563   1.408       .  A
C2563      C2564   1.394       .  A
C2563      H2567   1.083       .  S
C2564      N2568   1.439       .  S
N2566      H2569   1.046       .  S
N2566      H2570   1.046       .  S
N2568      H2571   1.046       .  S
N2568      H2572   1.046       .  S
C2577      C2578   1.406       .  A
C2577      C2582   1.403       .  A
C2578      C2579   1.403       .  A
C2578      N2583   1.438       .  S
C2579      C2580   1.407       .  A
C2579      H2584   1.084       .  S
C2580      C2581   1.414       .  A
C2580      C2585   1.491       .  S
C2581      C2582   1.408       .  A
C2581      N2586   1.438       .  S
C2582      H2587   1.084       .  S
N2583      H2603   1.046       .  S
N2583      H2604   1.046       .  S
C2585      C2588   1.406       .  A
C2585      C2592   1.412       .  A
N2586      H2601   1.046       .  S
N2586      H2602   1.046       .  S
C2588      C2589   1.404       .  A
C2588      H2593   1.083       .  S
C2589      C2590   1.417       .  A
C2589      N2594   1.436       .  S
C2590      C2591   1.401       .  A
C2591      C2592   1.400       .  A
C2591      H2595   1.083       .  S
C2592      N2596   1.438       .  S
N2594      H2597   1.045       .  S
N2594      H2598   1.044       .  S
N2596      H2599   1.046       .  S
N2596      H2600   1.046       .  S
C2605      C2606   1.411       .  A
C2605      C2610   1.402       .  A
C2606      C2607   1.400       .  A
C2606      N2611   1.438       .  S
C2607      C2608   1.401       .  A
C2607      H2612   1.084       .  S
C2608      C2609   1.411       .  A
C2608      C2613   1.480       .  S
C2609      C2610   1.408       .  A
C2609      N2614   1.437       .  S
C2610      H2615   1.083       .  S
N2611      H2631   1.046       .  S
N2611      H2632   1.046       .  S
C2613      C2616   1.403       .  A
C2613      C2620   1.410       .  A
N2614      H2629   1.046       .  S
N2614      H2630   1.046       .  S
C2616      C2617   1.406       .  A
C2616      H2621   1.084       .  S
C2617      C2618   1.411       .  A
C2617      N2622   1.438       .  S
C2618      C2619   1.401       .  A
C2619      C2620   1.402       .  A
C2619      H2623   1.084       .  S
C2620      N2624   1.438       .  S
N2622      H2625   1.046       .  S
N2622      H2626   1.046       .  S
N2624      H2627   1.046       .  S
N2624      H2628   1.046       .  S
C2633      C2634   1.411       .  A
C2633      C2638   1.403       .  A
C2634      C2635   1.401       .  A
C2634      N2639   1.438       .  S
C2635      C2636   1.398       .  A
C2635      H2640   1.084       .  S
C2636      C2637   1.410       .  A
C2636      C2641   1.477       .  S
C2637      C2638   1.409       .  A
C2637      N2642   1.437       .  S
C2638      H2643   1.083       .  S
N2639      H2659   1.046       .  S
N2639      H2660   1.046       .  S
C2641      C2644   1.400       .  A
C2641      C2648   1.406       .  A
N2642      H2657   1.046       .  S
N2642      H2658   1.046       .  S
C2644      C2645   1.409       .  A
C2644      H2649   1.084       .  S
C2645      C2646   1.419       .  A
C2645      N2650   1.438       .  S
C2646      C2647   1.406       .  A
C2647      C2648   1.401       .  A
C2647      H2651   1.083       .  S
C2648      N2652   1.438       .  S
N2650      H2653   1.046       .  S
N2650      H2654   1.046       .  S
N2652      H2655   1.046       .  S
N2652      H2656   1.046       .  S
C2661      C2662   1.416       .  A
C2661      C2666   1.409       .  A
C2662      C2663   1.404       .  A
C2662      N2667   1.438       .  S
C2663      C2664   1.400       .  A
C2663      H2668   1.084       .  S
C2664      C2665   1.408       .  A
C2664      C2669   1.481       .  S
C2665      C2666   1.406       .  A
C2665      N2670   1.438       .  S
C2666      H2671   1.083       .  S
N2667      H2687   1.045       .  S
N2667      H2688   1.046       .  S
C2669      C2672   1.402       .  A
C2669      C2676   1.411       .  A
N2670      H2685   1.046       .  S
N2670      H2686   1.046       .  S
C2672      C2673   1.399       .  A
C2672      H2677   1.084       .  S
C2673      C2674   1.413       .  A
C2673      N2678   1.438       .  S
C2674      C2675   1.399       .  A
C2675      C2676   1.405       .  A
C2675      H2679   1.083       .  S
C2676      N2680   1.437       .  S
N2678      H2681   1.046       .  S
N2678      H2682   1.044       .  S
N2680      H2683   1.046       .  S
N2680      H2684   1.046       .  S
C2689      C2690   1.410       .  A
C2689      C2694   1.403       .  A
C2690      C2691   1.403       .  A
C2690      N2695   1.437       .  S
C2691      C2692   1.401       .  A
C2691      H2696   1.084       .  S
C2692      C2693   1.410       .  A
C2692      C2697   1.479       .  S
C2693      C2694   1.403       .  A
C2693      N2698   1.438       .  S
C2694      H2699   1.083       .  S
N2695      H2715   1.046       .  S
N2695      H2716   1.046       .  S
C2697      C2700   1.404       .  A
C2697      C2704   1.410       .  A
N2698      H2713   1.046       .  S
N2698      H2714   1.046       .  S
C2700      C2701   1.402       .  A
C2700      H2705   1.084       .  S
C2701      C2702   1.406       .  A
C2701      N2706   1.438       .  S
C2702      C2703   1.402       .  A
C2703      C2704   1.404       .  A
C2703      H2707   1.084       .  S
C2704      N2708   1.438       .  S
N2706      H2709   1.046       .  S
N2706      H2710   1.046       .  S
N2708      H2711   1.046       .  S
N2708      H2712   1.046       .  S
C2717      C2718   1.417       .  A
C2717      C2722   1.400       .  A
C2718      C2719   1.402       .  A
C2718      N2723   1.437       .  S
C2719      C2720   1.404       .  A
C2719      H2724   1.084       .  S
C2720      C2721   1.409       .  A
C2720      C2725   1.484       .  S
C2721      C2722   1.397       .  A
C2721      N2726   1.433       .  S
C2722      H2727   1.084       .  S
N2723      H2743   1.043       .  S
N2723      H2744   1.045       .  S
C2725      C2728   1.404       .  A
C2725      C2732   1.413       .  A
N2726      H2741   1.046       .  S
N2726      H2742   1.046       .  S
C2728      C2729   1.402       .  A
C2728      H2733   1.084       .  S
C2729      C2730   1.410       .  A
C2729      N2734   1.438       .  S
C2730      C2731   1.403       .  A
C2731      C2732   1.404       .  A
C2731      H2735   1.084       .  S
C2732      N2736   1.438       .  S
N2734      H2737   1.046       .  S
N2734      H2738   1.046       .  S
N2736      H2739   1.046       .  S
N2736      H2740   1.045       .  S
C2745      C2746   1.406       .  A
C2745      C2750   1.402       .  A
C2746      C2747   1.401       .  A
C2746      N2751   1.431       .  S
C2747      C2748   1.402       .  A
C2747      H2752   1.084       .  S
C2748      C2749   1.412       .  A
C2748      C2753   1.481       .  S
C2749      C2750   1.406       .  A
C2749      N2754   1.438       .  S
C2750      H2755   1.083       .  S
N2751      H2771   1.046       .  S
N2751      H2772   1.045       .  S
C2753      C2756   1.400       .  A
C2753      C2760   1.407       .  A
N2754      H2769   1.046       .  S
N2754      H2770   1.046       .  S
C2756      C2757   1.405       .  A
C2756      H2761   1.084       .  S
C2757      C2758   1.420       .  A
C2757      N2762   1.438       .  S
C2758      C2759   1.409       .  A
C2759      C2760   1.404       .  A
C2759      H2763   1.083       .  S
C2760      N2764   1.438       .  S
N2762      H2765   1.046       .  S
N2762      H2766   1.046       .  S
N2764      H2767   1.046       .  S
N2764      H2768   1.046       .  S
C2773      C2774   1.409       .  A
C2773      C2778   1.400       .  A
C2774      C2775   1.410       .  A
C2774      N2779   1.437       .  S
C2775      C2776   1.407       .  A
C2775      H2780   1.083       .  S
C2776      C2777   1.413       .  A
C2776      C2781   1.491       .  S
C2777      C2778   1.403       .  A
C2777      N2782   1.438       .  S
C2778      H2783   1.084       .  S
N2779      H2799   1.046       .  S
N2779      H2800   1.046       .  S
C2781      C2784   1.402       .  A
C2781      C2788   1.411       .  A
N2782      H2797   1.046       .  S
N2782      H2798   1.045       .  S
C2784      C2785   1.406       .  A
C2784      H2789   1.084       .  S
C2785      C2786   1.417       .  A
C2785      N2790   1.438       .  S
C2786      C2787   1.409       .  A
C2787      C2788   1.408       .  A
C2787      H2791   1.083       .  S
C2788      N2792   1.438       .  S
N2790      H2793   1.046       .  S
N2790      H2794   1.046   1_556  S
N2792      H2795   1.046       .  S
N2792      H2796   1.045       .  S
C2801      C2802   1.411       .  A
C2801      C2806   1.403       .  A
C2802      C2803   1.408       .  A
C2802      N2807   1.437       .  S
C2803      C2804   1.406       .  A
C2803      H2808   1.083       .  S
C2804      C2805   1.411       .  A
C2804      C2809   1.488       .  S
C2805      C2806   1.403       .  A
C2805      N2810   1.438       .  S
C2806      H2811   1.084       .  S
N2807      H2827   1.045       .  S
N2807      H2828   1.046       .  S
C2809      C2812   1.402       .  A
C2809      C2816   1.411       .  A
N2810      H2825   1.046       .  S
N2810      H2826   1.046       .  S
C2812      C2813   1.402       .  A
C2812      H2817   1.084       .  S
C2813      C2814   1.415       .  A
C2813      N2818   1.432       .  S
C2814      C2815   1.409       .  A
C2815      C2816   1.408       .  A
C2815      H2819   1.083       .  S
C2816      N2820   1.438       .  S
N2818      H2821   1.046       .  S
N2818      H2822   1.046       .  S
N2820      H2823   1.046       .  S
N2820      H2824   1.046       .  S
C2829      C2830   1.408       .  A
C2829      C2834   1.403       .  A
C2830      C2831   1.403       .  A
C2830      N2835   1.431       .  S
C2831      C2832   1.405       .  A
C2831      H2836   1.084       .  S
C2832      C2833   1.413       .  A
C2832      C2837   1.490       .  S
C2833      C2834   1.406       .  A
C2833      N2838   1.438       .  S
C2834      H2839   1.083       .  S
N2835      H2855   1.045       .  S
N2835      H2856   1.046       .  S
C2837      C2840   1.407       .  A
C2837      C2844   1.412       .  A
N2838      H2853   1.046       .  S
N2838      H2854   1.046       .  S
C2840      C2841   1.408       .  A
C2840      H2845   1.083       .  S
C2841      C2842   1.410       .  A
C2841      N2846   1.438       .  S
C2842      C2843   1.404       .  A
C2843      C2844   1.403       .  A
C2843      H2847   1.084       .  S
C2844      N2848   1.438       .  S
N2846      H2849   1.046       .  S
N2846      H2850   1.046       .  S
N2848      H2851   1.046       .  S
N2848      H2852   1.046       .  S
C2857      C2858   1.413       .  A
C2857      C2862   1.402       .  A
C2858      C2859   1.406       .  A
C2858      N2863   1.438       .  S
C2859      C2860   1.401       .  A
C2859      H2864   1.084       .  S
C2860      C2861   1.411       .  A
C2860      C2865   1.481       .  S
C2861      C2862   1.408       .  A
C2861      N2866   1.438       .  S
C2862      H2867   1.083       .  S
N2863      H2883   1.046       .  S
N2863      H2884   1.045       .  S
C2865      C2868   1.401       .  A
C2865      C2872   1.411       .  A
N2866      H2881   1.046       .  S
N2866      H2882   1.044       .  S
C2868      C2869   1.402       .  A
C2868      H2873   1.084       .  S
C2869      C2870   1.409       .  A
C2869      N2874   1.433       .  S
C2870      C2871   1.406       .  A
C2871      C2872   1.410       .  A
C2871      H2875   1.084       .  S
C2872      N2876   1.438       .  S
N2874      H2877   1.046       .  S
N2874      H2878   1.045       .  S
N2876      H2879   1.046       .  S
N2876      H2880   1.044       .  S
C2885      C2886   1.408       .  A
C2885      C2890   1.402       .  A
C2886      C2887   1.404       .  A
C2886      N2891   1.432       .  S
C2887      C2888   1.404       .  A
C2887      H2892   1.084       .  S
C2888      C2889   1.412       .  A
C2888      C2893   1.486       .  S
C2889      C2890   1.404       .  A
C2889      N2894   1.438       .  S
C2890      H2895   1.080       .  S
N2891      H2911   1.046       .  S
N2891      H2912   1.045       .  S
C2893      C2896   1.402       .  A
C2893      C2900   1.410       .  A
N2894      H2909   1.046       .  S
N2894      H2910   1.046       .  S
C2896      C2897   1.401       .  A
C2896      H2901   1.084       .  S
C2897      C2898   1.414       .  A
C2897      N2902   1.433       .  S
C2898      C2899   1.408       .  A
C2899      C2900   1.408       .  A
C2899      H2903   1.083       .  S
C2900      N2904   1.437       .  S
N2902      H2905   1.046       .  S
N2902      H2906   1.046       .  S
N2904      H2907   1.046       .  S
N2904      H2908   1.046       .  S
C2913      C2914   1.411       .  A
C2913      C2918   1.402       .  A
C2914      C2915   1.399       .  A
C2914      N2919   1.432       .  S
C2915      C2916   1.402       .  A
C2915      H2920   1.084       .  S
C2916      C2917   1.410       .  A
C2916      C2921   1.477       .  S
C2917      C2918   1.405       .  A
C2917      N2922   1.438       .  S
C2918      H2923   1.083       .  S
N2919      H2939   1.043       .  S
N2919      H2940   1.045       .  S
C2921      C2924   1.401       .  A
C2921      C2928   1.410       .  A
N2922      H2937   1.045       .  S
N2922      H2938   1.044       .  S
C2924      C2925   1.404       .  A
C2924      H2929   1.084       .  S
C2925      C2926   1.409       .  A
C2925      N2930   1.438       .  S
C2926      C2927   1.403       .  A
C2927      C2928   1.408       .  A
C2927      H2931   1.084       .  S
C2928      N2932   1.438       .  S
N2930      H2933   1.046       .  S
N2930      H2934   1.046       .  S
N2932      H2935   1.046       .  S
N2932      H2936   1.044       .  S
C2941      C2942   1.409       .  A
C2941      C2946   1.404       .  A
C2942      C2943   1.403       .  A
C2942      N2947   1.432       .  S
C2943      C2944   1.403       .  A
C2943      H2948   1.084       .  S
C2944      C2945   1.410       .  A
C2944      C2949   1.479       .  S
C2945      C2946   1.401       .  A
C2945      N2950   1.438       .  S
C2946      H2951   1.084       .  S
N2947      H2967   1.046       .  S
N2947      H2968   1.046       .  S
C2949      C2952   1.401       .  A
C2949      C2956   1.411       .  A
N2950      H2965   1.046       .  S
N2950      H2966   1.046       .  S
C2952      C2953   1.396       .  A
C2952      H2957   1.084       .  S
C2953      C2954   1.407       .  A
C2953      N2958   1.432       .  S
C2954      C2955   1.404       .  A
C2955      C2956   1.407       .  A
C2955      H2959   1.083       .  S
C2956      N2960   1.437       .  S
N2958      H2961   1.046       .  S
N2958      H2962   1.046       .  S
N2960      H2963   1.046       .  S
N2960      H2964   1.046       .  S
C2969      C2970   1.412       .  A
C2969      C2974   1.404       .  A
C2970      C2971   1.401       .  A
C2970      N2975   1.438       .  S
C2971      C2972   1.400       .  A
C2971      H2976   1.084       .  S
C2972      C2973   1.409       .  A
C2972      C2977   1.477       .  S
C2973      C2974   1.405       .  A
C2973      N2978   1.437       .  S
C2974      H2979   1.083       .  S
N2975      H2995   1.046       .  S
N2975      H2996   1.046       .  S
C2977      C2980   1.404       .  A
C2977      C2984   1.409       .  A
N2978      H2993   1.046       .  S
N2978      H2994   1.046       .  S
C2980      C2981   1.404       .  A
C2980      H2985   1.084       .  S
C2981      C2982   1.408       .  A
C2981      N2986   1.438       .  S
C2982      C2983   1.401       .  A
C2983      C2984   1.402       .  A
C2983      H2987   1.084       .  S
C2984      N2988   1.438       .  S
N2986      H2989   1.046       .  S
N2986      H2990   1.046       .  S
N2988      H2991   1.046       .  S
N2988      H2992   1.046       .  S
C2997      C2998   1.413       .  A
C2997      C3002   1.407       .  A
C2998      C2999   1.397       .  A
C2998      N3003   1.433       .  S
C2999      C3000   1.401       .  A
C2999      H3004   1.084       .  S
C3000      C3001   1.413       .  A
C3000      C3005   1.487       .  S
C3001      C3002   1.409       .  A
C3001      N3006   1.438       .  S
C3002      H3007   1.083       .  S
N3003      H3023   1.046       .  S
N3003      H3024   1.046       .  S
C3005      C3008   1.404       .  A
C3005      C3012   1.414       .  A
N3006      H3021   1.046       .  S
N3006      H3022   1.046       .  S
C3008      C3009   1.403       .  A
C3008      H3013   1.083       .  S
C3009      C3010   1.409       .  A
C3009      N3014   1.431       .  S
C3010      C3011   1.401       .  A
C3011      C3012   1.403       .  A
C3011      H3015   1.083       .  S
C3012      N3016   1.438       .  S
N3014      H3017   1.045       .  S
N3014      H3018   1.046       .  S
N3016      H3019   1.046       .  S
N3016      H3020   1.046       .  S
C3025      C3026   1.413       .  A
C3025      C3030   1.402       .  A
C3026      C3027   1.407       .  A
C3026      N3031   1.437       .  S
C3027      C3028   1.403       .  A
C3027      H3032   1.083       .  S
C3028      C3029   1.411       .  A
C3028      C3033   1.484       .  S
C3029      C3030   1.402       .  A
C3029      N3034   1.438       .  S
C3030      H3035   1.084       .  S
N3031      H3051   1.045       .  S
N3031      H3052   1.045       .  S
C3033      C3036   1.402       .  A
C3033      C3040   1.413       .  A
N3034      H3049   1.046       .  S
N3034      H3050   1.046       .  S
C3036      C3037   1.399       .  A
C3036      H3041   1.084       .  S
C3037      C3038   1.408       .  A
C3037      N3042   1.433       .  S
C3038      C3039   1.404       .  A
C3039      C3040   1.409       .  A
C3039      H3043   1.084       .  S
C3040      N3044   1.438       .  S
N3042      H3045   1.046       .  S
N3042      H3046   1.045       .  S
N3044      H3047   1.046       .  S
N3044      H3048   1.046       .  S
C3053      C3054   1.411       .  A
C3053      C3058   1.401       .  A
C3054      C3055   1.406       .  A
C3054      N3059   1.438       .  S
C3055      C3056   1.402       .  A
C3055      H3060   1.084       .  S
C3056      C3057   1.409       .  A
C3056      C3061   1.477       .  S
C3057      C3058   1.402       .  A
C3057      N3062   1.438       .  S
C3058      H3063   1.084       .  S
N3059      H3079   1.045       .  S
N3059      H3080   1.046       .  S
C3061      C3064   1.401       .  A
C3061      C3068   1.408       .  A
N3062      H3077   1.046       .  S
N3062      H3078   1.046       .  S
C3064      C3065   1.401       .  A
C3064      H3069   1.084       .  S
C3065      C3066   1.411       .  A
C3065      N3070   1.438       .  S
C3066      C3067   1.405       .  A
C3067      C3068   1.407       .  A
C3067      H3071   1.083       .  S
C3068      N3072   1.437       .  S
N3070      H3073   1.046       .  S
N3070      H3074   1.046       .  S
N3072      H3075   1.046       .  S
N3072      H3076   1.046       .  S
C3081      C3082   1.412       .  A
C3081      C3086   1.403       .  A
C3082      C3083   1.404       .  A
C3082      N3087   1.437       .  S
C3083      C3084   1.401       .  A
C3083      H3088   1.084       .  S
C3084      C3085   1.409       .  A
C3084      C3089   1.479       .  S
C3085      C3086   1.405       .  A
C3085      N3090   1.437       .  S
C3086      H3091   1.083       .  S
N3087      H3107   1.045       .  S
N3087      H3108   1.045       .  S
C3089      C3092   1.400       .  A
C3089      C3096   1.406       .  A
N3090      H3105   1.046       .  S
N3090      H3106   1.046       .  S
C3092      C3093   1.405       .  A
C3092      H3097   1.084       .  S
C3093      C3094   1.418       .  A
C3093      N3098   1.438       .  S
C3094      C3095   1.410       .  A
C3095      C3096   1.405       .  A
C3095      H3099   1.083       .  S
C3096      N3100   1.438       .  S
N3098      H3101   1.046       .  S
N3098      H3102   1.046       .  S
N3100      H3103   1.045       .  S
N3100      H3104   1.046       .  S
C3109      C3110   1.412       .  A
C3109      C3114   1.400       .  A
C3110      C3111   1.405       .  A
C3110      N3115   1.438       .  S
C3111      C3112   1.401       .  A
C3111      H3116   1.084       .  S
C3112      C3113   1.410       .  A
C3112      C3117   1.475       .  S
C3113      C3114   1.404       .  A
C3113      N3118   1.438       .  S
C3114      H3119   1.084       .  S
N3115      H3135   1.046   1_565  S
N3115      H3136   1.046       .  S
C3117      C3120   1.399       .  A
C3117      C3124   1.410       .  A
N3118      H3133   1.046       .  S
N3118      H3134   1.043       .  S
C3120      C3121   1.398       .  A
C3120      H3125   1.084       .  S
C3121      C3122   1.408       .  A
C3121      N3126   1.432       .  S
C3122      C3123   1.405       .  A
C3123      C3124   1.407       .  A
C3123      H3127   1.083       .  S
C3124      N3128   1.438       .  S
N3126      H3129   1.045       .  S
N3126      H3130   1.046       .  S
N3128      H3131   1.046       .  S
N3128      H3132   1.043       .  S
C3137      C3138   1.408       .  A
C3137      C3142   1.402       .  A
C3138      C3139   1.403       .  A
C3138      N3143   1.438       .  S
C3139      C3140   1.405       .  A
C3139      H3144   1.083       .  S
C3140      C3141   1.413       .  A
C3140      C3145   1.488       .  S
C3141      C3142   1.405       .  A
C3141      N3146   1.438       .  S
C3142      H3147   1.084       .  S
N3143      H3163   1.045       .  S
N3143      H3164   1.046       .  S
C3145      C3148   1.405       .  A
C3145      C3152   1.413       .  A
N3146      H3161   1.046       .  S
N3146      H3162   1.046       .  S
C3148      C3149   1.406       .  A
C3148      H3153   1.083       .  S
C3149      C3150   1.411       .  A
C3149      N3154   1.438       .  S
C3150      C3151   1.403       .  A
C3151      C3152   1.405       .  A
C3151      H3155   1.084       .  S
C3152      N3156   1.438       .  S
N3154      H3157   1.046       .  S
N3154      H3158   1.046       .  S
N3156      H3159   1.046       .  S
N3156      H3160   1.046       .  S
C3165      C3166   1.409       .  A
C3165      C3170   1.404       .  A
C3166      C3167   1.402       .  A
C3166      N3171   1.436       .  S
C3167      C3168   1.401       .  A
C3167      H3172   1.084       .  S
C3168      C3169   1.410       .  A
C3168      C3173   1.480       .  S
C3169      C3170   1.406       .  A
C3169      N3174   1.437       .  S
C3170      H3175   1.083       .  S
N3171      H3191   1.046       .  S
N3171      H3192   1.046       .  S
C3173      C3176   1.402       .  A
C3173      C3180   1.410       .  A
N3174      H3189   1.046       .  S
N3174      H3190   1.045       .  S
C3176      C3177   1.405       .  A
C3176      H3181   1.084       .  S
C3177      C3178   1.412       .  A
C3177      N3182   1.438       .  S
C3178      C3179   1.403       .  A
C3179      C3180   1.405       .  A
C3179      H3183   1.084       .  S
C3180      N3184   1.438       .  S
N3182      H3185   1.046       .  S
N3182      H3186   1.046       .  S
N3184      H3187   1.046       .  S
N3184      H3188   1.046       .  S
C3193      C3194   1.406       .  A
C3193      C3198   1.401       .  A
C3194      C3195   1.401       .  A
C3194      N3199   1.438       .  S
C3195      C3196   1.403       .  A
C3195      H3200   1.084       .  S
C3196      C3197   1.410       .  A
C3196      C3201   1.476       .  S
C3197      C3198   1.403       .  A
C3197      N3202   1.438       .  S
C3198      H3203   1.084       .  S
N3199      H3219   1.046       .  S
N3199      H3220   1.046       .  S
C3201      C3204   1.401       .  A
C3201      C3208   1.410       .  A
N3202      H3217   1.046       .  S
N3202      H3218   1.045       .  S
C3204      C3205   1.399       .  A
C3204      H3209   1.084       .  S
C3205      C3206   1.408       .  A
C3205      N3210   1.431       .  S
C3206      C3207   1.402       .  A
C3207      C3208   1.403       .  A
C3207      H3211   1.084       .  S
C3208      N3212   1.438       .  S
N3210      H3213   1.046       .  S
N3210      H3214   1.046       .  S
N3212      H3215   1.046       .  S
N3212      H3216   1.046       .  S
C3221      C3222   1.418       .  A
C3221      C3226   1.407       .  A
C3222      C3223   1.407       .  A
C3222      N3227   1.437       .  S
C3223      C3224   1.399       .  A
C3223      H3228   1.084       .  S
C3224      C3225   1.405       .  A
C3224      C3229   1.471       .  S
C3225      C3226   1.400       .  A
C3225      N3230   1.439       .  S
C3226      H3231   1.083       .  S
N3227      H3247   1.045       .  S
N3227      H3248   1.046       .  S
C3229      C3232   1.399       .  A
C3229      C3236   1.407       .  A
N3230      H3245   1.045       .  S
N3230      H3246   1.045       .  S
C3232      C3233   1.403       .  A
C3232      H3237   1.084       .  S
C3233      C3234   1.413       .  A
C3233      N3238   1.438       .  S
C3234      C3235   1.403       .  A
C3235      C3236   1.402       .  A
C3235      H3239   1.082       .  S
C3236      N3240   1.438       .  S
N3238      H3241   1.046       .  S
N3238      H3242   1.046       .  S
N3240      H3243   1.045       .  S
N3240      H3244   1.045       .  S
C3249      C3250   1.406       .  A
C3249      C3254   1.400       .  A
C3250      C3251   1.404       .  A
C3250      N3255   1.431       .  S
C3251      C3252   1.405       .  A
C3251      H3256   1.084       .  S
C3252      C3253   1.415       .  A
C3252      C3257   1.490       .  S
C3253      C3254   1.405       .  A
C3253      N3258   1.438       .  S
C3254      H3259   1.083       .  S
N3255      H3275   1.046       .  S
N3255      H3276   1.046       .  S
C3257      C3260   1.404       .  A
C3257      C3264   1.414       .  A
N3258      H3273   1.046       .  S
N3258      H3274   1.046       .  S
C3260      C3261   1.402       .  A
C3260      H3265   1.084       .  S
C3261      C3262   1.409       .  A
C3261      N3266   1.432       .  S
C3262      C3263   1.404       .  A
C3263      C3264   1.408       .  A
C3263      H3267   1.084       .  S
C3264      N3268   1.438       .  S
N3266      H3269   1.046       .  S
N3266      H3270   1.046       .  S
N3268      H3271   1.046       .  S
N3268      H3272   1.046       .  S
C3277      C3278   1.406       .  A
C3277      C3282   1.402       .  A
C3278      C3279   1.396       .  A
C3278      N3283   1.433       .  S
C3279      C3280   1.401       .  A
C3279      H3284   1.084       .  S
C3280      C3281   1.414       .  A
C3280      C3285   1.481       .  S
C3281      C3282   1.408       .  A
C3281      N3286   1.438       .  S
C3282      H3287   1.084       .  S
N3283      H3303   1.046       .  S
N3283      H3304   1.046       .  S
C3285      C3288   1.403       .  A
C3285      C3292   1.413       .  A
N3286      H3301   1.046       .  S
N3286      H3302   1.046       .  S
C3288      C3289   1.402       .  A
C3288      H3293   1.084       .  S
C3289      C3290   1.408       .  A
C3289      N3294   1.437       .  S
C3290      C3291   1.399       .  A
C3291      C3292   1.403       .  A
C3291      H3295   1.084       .  S
C3292      N3296   1.438       .  S
N3294      H3297   1.045       .  S
N3294      H3298   1.046       .  S
N3296      H3299   1.046       .  S
N3296      H3300   1.046       .  S
C3305      C3306   1.414       .  A
C3305      C3310   1.406       .  A
C3306      C3307   1.404       .  A
C3306      N3311   1.438       .  S
C3307      C3308   1.401       .  A
C3307      H3312   1.084       .  S
C3308      C3309   1.407       .  A
C3308      C3313   1.476       .  S
C3309      C3310   1.403       .  A
C3309      N3314   1.438       .  S
C3310      H3315   1.084       .  S
N3311      H3331   1.046       .  S
N3311      H3332   1.046       .  S
C3313      C3316   1.402       .  A
C3313      C3320   1.410       .  A
N3314      H3329   1.046       .  S
N3314      H3330   1.046       .  S
C3316      C3317   1.396       .  A
C3316      H3321   1.084       .  S
C3317      C3318   1.409       .  A
C3317      N3322   1.432       .  S
C3318      C3319   1.401       .  A
C3319      C3320   1.404       .  A
C3319      H3323   1.083       .  S
C3320      N3324   1.437       .  S
N3322      H3325   1.044       .  S
N3322      H3326   1.045       .  S
N3324      H3327   1.046       .  S
N3324      H3328   1.046       .  S
C3333      C3334   1.411       .  A
C3333      C3338   1.401       .  A
C3334      C3335   1.404       .  A
C3334      N3339   1.436       .  S
C3335      C3336   1.400       .  A
C3335      H3340   1.084       .  S
C3336      C3337   1.408       .  A
C3336      C3341   1.473       .  S
C3337      C3338   1.403       .  A
C3337      N3342   1.438       .  S
C3338      H3343   1.081       .  S
N3339      H3359   1.044       .  S
N3339      H3360   1.046       .  S
C3341      C3344   1.398       .  A
C3341      C3348   1.407       .  A
N3342      H3357   1.046       .  S
N3342      H3358   1.045       .  S
C3344      C3345   1.403       .  A
C3344      H3349   1.084       .  S
C3345      C3346   1.417       .  A
C3345      N3350   1.438       .  S
C3346      C3347   1.405       .  A
C3347      C3348   1.405       .  A
C3347      H3351   1.084       .  S
C3348      N3352   1.438       .  S
N3350      H3353   1.046       .  S
N3350      H3354   1.045       .  S
N3352      H3355   1.046       .  S
N3352      H3356   1.045       .  S
C3361      C3362   1.407       .  A
C3361      C3366   1.400       .  A
C3362      C3363   1.403       .  A
C3362      N3367   1.431       .  S
C3363      C3364   1.403       .  A
C3363      H3368   1.084       .  S
C3364      C3365   1.413       .  A
C3364      C3369   1.482       .  S
C3365      C3366   1.402       .  A
C3365      N3370   1.438       .  S
C3366      H3371   1.084       .  S
N3367      H3387   1.046       .  S
N3367      H3388   1.045       .  S
C3369      C3372   1.403       .  A
C3369      C3376   1.412       .  A
N3370      H3385   1.046       .  S
N3370      H3386   1.046       .  S
C3372      C3373   1.399       .  A
C3372      H3377   1.084       .  S
C3373      C3374   1.408       .  A
C3373      N3378   1.438       .  S
C3374      C3375   1.402       .  A
C3375      C3376   1.408       .  A
C3375      H3379   1.084       .  S
C3376      N3380   1.437       .  S
N3378      H3381   1.046       .  S
N3378      H3382   1.046       .  S
N3380      H3383   1.046       .  S
N3380      H3384   1.046       .  S
C3389      C3390   1.410       .  A
C3389      C3394   1.399       .  A
C3390      C3391   1.406       .  A
C3390      N3395   1.437       .  S
C3391      C3392   1.402       .  A
C3391      H3396   1.084       .  S
C3392      C3393   1.411       .  A
C3392      C3397   1.479       .  S
C3393      C3394   1.402       .  A
C3393      N3398   1.438       .  S
C3394      H3399   1.084       .  S
N3395      H3415   1.046       .  S
N3395      H3416   1.046       .  S
C3397      C3400   1.402       .  A
C3397      C3404   1.409       .  A
N3398      H3413   1.046       .  S
N3398      H3414   1.046       .  S
C3400      C3401   1.402       .  A
C3400      H3405   1.084       .  S
C3401      C3402   1.412       .  A
C3401      N3406   1.439       .  S
C3402      C3403   1.403       .  A
C3403      C3404   1.406       .  A
C3403      H3407   1.084       .  S
C3404      N3408   1.437       .  S
N3406      H3409   1.046       .  S
N3406      H3410   1.044       .  S
N3408      H3411   1.046       .  S
N3408      H3412   1.046       .  S
C3417      C3418   1.412       .  A
C3417      C3422   1.404       .  A
C3418      C3419   1.408       .  A
C3418      N3423   1.438       .  S
C3419      C3420   1.403       .  A
C3419      H3424   1.084       .  S
C3420      C3421   1.407       .  A
C3420      C3425   1.478       .  S
C3421      C3422   1.402       .  A
C3421      N3426   1.438       .  S
C3422      H3427   1.084       .  S
N3423      H3443   1.046       .  S
N3423      H3444   1.046       .  S
C3425      C3428   1.401       .  A
C3425      C3432   1.409       .  A
N3426      H3441   1.046       .  S
N3426      H3442   1.046       .  S
C3428      C3429   1.404       .  A
C3428      H3433   1.084       .  S
C3429      C3430   1.409       .  A
C3429      N3434   1.437       .  S
C3430      C3431   1.402       .  A
C3431      C3432   1.404       .  A
C3431      H3435   1.083       .  S
C3432      N3436   1.437       .  S
N3434      H3437   1.046       .  S
N3434      H3438   1.045       .  S
N3436      H3439   1.046       .  S
N3436      H3440   1.046       .  S
C3445      C3446   1.408       .  A
C3445      C3450   1.402       .  A
C3446      C3447   1.404       .  A
C3446      N3451   1.438       .  S
C3447      C3448   1.405       .  A
C3447      H3452   1.084       .  S
C3448      C3449   1.411       .  A
C3448      C3453   1.484       .  S
C3449      C3450   1.404       .  A
C3449      N3454   1.437       .  S
C3450      H3455   1.083       .  S
N3451      H3471   1.046       .  S
N3451      H3472   1.046       .  S
C3453      C3456   1.404       .  A
C3453      C3460   1.411       .  A
N3454      H3469   1.046       .  S
N3454      H3470   1.046       .  S
C3456      C3457   1.405       .  A
C3456      H3461   1.084       .  S
C3457      C3458   1.411       .  A
C3457      N3462   1.438       .  S
C3458      C3459   1.403       .  A
C3459      C3460   1.405       .  A
C3459      H3463   1.084       .  S
C3460      N3464   1.438       .  S
N3462      H3465   1.046       .  S
N3462      H3466   1.046       .  S
N3464      H3467   1.046       .  S
N3464      H3468   1.046       .  S
C3473      C3474   1.407       .  A
C3473      C3478   1.404       .  A
C3474      C3475   1.400       .  A
C3474      N3479   1.432       .  S
C3475      C3476   1.404       .  A
C3475      H3480   1.084       .  S
C3476      C3477   1.412       .  A
C3476      C3481   1.487       .  S
C3477      C3478   1.407       .  A
C3477      N3482   1.437       .  S
C3478      H3483   1.082       .  S
N3479      H3499   1.046       .  S
N3479      H3500   1.046       .  S
C3481      C3484   1.405       .  A
C3481      C3488   1.411       .  A
N3482      H3497   1.046       .  S
N3482      H3498   1.045       .  S
C3484      C3485   1.407       .  A
C3484      H3489   1.083       .  S
C3485      C3486   1.411       .  A
C3485      N3490   1.438       .  S
C3486      C3487   1.403       .  A
C3487      C3488   1.403       .  A
C3487      H3491   1.084       .  S
C3488      N3492   1.438       .  S
N3490      H3493   1.046       .  S
N3490      H3494   1.046       .  S
N3492      H3495   1.046       .  S
N3492      H3496   1.046       .  S
C3501      C3502   1.410       .  A
C3501      C3506   1.402       .  A
C3502      C3503   1.399       .  A
C3502      N3507   1.432       .  S
C3503      C3504   1.403       .  A
C3503      H3508   1.084       .  S
C3504      C3505   1.409       .  A
C3504      C3509   1.478       .  S
C3505      C3506   1.405       .  A
C3505      N3510   1.437       .  S
C3506      H3511   1.083       .  S
N3507      H3527   1.045       .  S
N3507      H3528   1.044       .  S
C3509      C3512   1.398       .  A
C3509      C3516   1.407       .  A
N3510      H3525   1.046       .  S
N3510      H3526   1.045       .  S
C3512      C3513   1.405       .  A
C3512      H3517   1.084       .  S
C3513      C3514   1.417       .  A
C3513      N3518   1.438       .  S
C3514      C3515   1.408       .  A
C3515      C3516   1.408       .  A
C3515      H3519   1.084       .  S
C3516      N3520   1.438       .  S
N3518      H3521   1.046       .  S
N3518      H3522   1.045       .  S
N3520      H3523   1.046       .  S
N3520      H3524   1.045       .  S
C3529      C3530   1.408       .  A
C3529      C3534   1.403       .  A
C3530      C3531   1.405       .  A
C3530      N3535   1.437       .  S
C3531      C3532   1.403       .  A
C3531      H3536   1.084       .  S
C3532      C3533   1.406       .  A
C3532      C3537   1.473       .  S
C3533      C3534   1.400       .  A
C3533      N3538   1.438       .  S
C3534      H3539   1.084       .  S
N3535      H3555   1.045       .  S
N3535      H3556   1.046       .  S
C3537      C3540   1.399       .  A
C3537      C3544   1.406       .  A
N3538      H3553   1.046       .  S
N3538      H3554   1.046       .  S
C3540      C3541   1.402       .  A
C3540      H3545   1.084       .  S
C3541      C3542   1.414       .  A
C3541      N3546   1.438       .  S
C3542      C3543   1.405       .  A
C3543      C3544   1.405       .  A
C3543      H3547   1.084       .  S
C3544      N3548   1.438       .  S
N3546      H3549   1.046       .  S
N3546      H3550   1.046       .  S
N3548      H3551   1.045       .  S
N3548      H3552   1.046       .  S
C3557      C3558   1.409       .  A
C3557      C3562   1.403       .  A
C3558      C3559   1.399       .  A
C3558      N3563   1.431       .  S
C3559      C3560   1.399       .  A
C3559      H3564   1.084       .  S
C3560      C3561   1.406       .  A
C3560      C3565   1.468       .  S
C3561      C3562   1.402       .  A
C3561      N3566   1.437       .  S
C3562      H3567   1.084       .  S
N3563      H3583   1.046       .  S
N3563      H3584   1.046       .  S
C3565      C3568   1.399       .  A
C3565      C3572   1.407       .  A
N3566      H3581   1.046       .  S
N3566      H3582   1.045       .  S
C3568      C3569   1.398       .  A
C3568      H3573   1.084       .  S
C3569      C3570   1.409       .  A
C3569      N3574   1.433       .  S
C3570      C3571   1.404       .  A
C3571      C3572   1.405       .  A
C3571      H3575   1.084       .  S
C3572      N3576   1.437       .  S
N3574      H3577   1.046       .  S
N3574      H3578   1.046       .  S
N3576      H3579   1.046       .  S
N3576      H3580   1.045       .  S
C3585      C3586   1.412       .  A
C3585      C3590   1.404       .  A
C3586      C3587   1.411       .  A
C3586      N3591   1.437       .  S
C3587      C3588   1.407       .  A
C3587      H3592   1.083       .  S
C3588      C3589   1.412       .  A
C3588      C3593   1.495       .  S
C3589      C3590   1.406       .  A
C3589      N3594   1.438       .  S
C3590      H3595   1.083       .  S
N3591      H3611   1.045       .  S
N3591      H3612   1.046       .  S
C3593      C3596   1.406       .  A
C3593      C3600   1.413       .  A
N3594      H3609   1.046       .  S
N3594      H3610   1.046       .  S
C3596      C3597   1.407       .  A
C3596      H3601   1.083       .  S
C3597      C3598   1.412       .  A
C3597      N3602   1.437       .  S
C3598      C3599   1.404       .  A
C3599      C3600   1.408       .  A
C3599      H3603   1.083       .  S
C3600      N3604   1.437       .  S
N3602      H3605   1.045       .  S
N3602      H3606   1.045       .  S
N3604      H3607   1.046       .  S
N3604      H3608   1.045       .  S
C3613      C3614   1.406       .  A
C3613      C3618   1.403       .  A
C3614      C3615   1.403       .  A
C3614      N3619   1.432       .  S
C3615      C3616   1.404       .  A
C3615      H3620   1.084       .  S
C3616      C3617   1.409       .  A
C3616      C3621   1.480       .  S
C3617      C3618   1.404       .  A
C3617      N3622   1.438       .  S
C3618      H3623   1.084       .  S
N3619      H3639   1.046       .  S
N3619      H3640   1.045       .  S
C3621      C3624   1.400       .  A
C3621      C3628   1.407       .  A
N3622      H3637   1.046       .  S
N3622      H3638   1.045       .  S
C3624      C3625   1.407       .  A
C3624      H3629   1.084       .  S
C3625      C3626   1.418       .  A
C3625      N3630   1.438       .  S
C3626      C3627   1.409       .  A
C3627      C3628   1.404       .  A
C3627      H3631   1.083       .  S
C3628      N3632   1.438       .  S
N3630      H3633   1.046       .  S
N3630      H3634   1.046       .  S
N3632      H3635   1.046       .  S
N3632      H3636   1.045       .  S
C3641      C3642   1.411       .  A
C3641      C3646   1.402       .  A
C3642      C3643   1.403       .  A
C3642      N3647   1.437       .  S
C3643      C3644   1.404       .  A
C3643      H3648   1.084       .  S
C3644      C3645   1.412       .  A
C3644      C3649   1.484       .  S
C3645      C3646   1.403       .  A
C3645      N3650   1.438       .  S
C3646      H3651   1.084       .  S
N3647      H3667   1.045       .  S
N3647      H3668   1.046       .  S
C3649      C3652   1.403       .  A
C3649      C3656   1.411       .  A
N3650      H3665   1.046       .  S
N3650      H3666   1.046       .  S
C3652      C3653   1.403       .  A
C3652      H3657   1.084       .  S
C3653      C3654   1.413       .  A
C3653      N3658   1.432       .  S
C3654      C3655   1.407       .  A
C3655      C3656   1.401       .  A
C3655      H3659   1.083       .  S
C3656      N3660   1.439       .  S
N3658      H3661   1.046       .  S
N3658      H3662   1.045       .  S
N3660      H3663   1.046       .  S
N3660      H3664   1.046       .  S
C3669      C3670   1.409       .  A
C3669      C3674   1.403       .  A
C3670      C3671   1.405       .  A
C3670      N3675   1.438       .  S
C3671      C3672   1.402       .  A
C3671      H3676   1.084       .  S
C3672      C3673   1.410       .  A
C3672      C3677   1.482       .  S
C3673      C3674   1.408       .  A
C3673      N3678   1.438       .  S
C3674      H3679   1.084       .  S
N3675      H3695   1.046       .  S
N3675      H3696   1.046       .  S
C3677      C3680   1.403       .  A
C3677      C3684   1.409       .  A
N3678      H3693   1.046       .  S
N3678      H3694   1.046       .  S
C3680      C3681   1.404       .  A
C3680      H3685   1.084       .  S
C3681      C3682   1.408       .  A
C3681      N3686   1.431       .  S
C3682      C3683   1.403       .  A
C3683      C3684   1.404       .  A
C3683      H3687   1.083       .  S
C3684      N3688   1.437       .  S
N3686      H3689   1.045       .  S
N3686      H3690   1.046       .  S
N3688      H3691   1.046       .  S
N3688      H3692   1.046       .  S
C3697      C3698   1.409       .  A
C3697      C3702   1.398       .  A
C3698      C3699   1.402       .  A
C3698      N3703   1.437       .  S
C3699      C3700   1.402       .  A
C3699      H3704   1.084       .  S
C3700      C3701   1.411       .  A
C3700      C3705   1.476       .  S
C3701      C3702   1.401       .  A
C3701      N3706   1.438       .  S
C3702      H3707   1.084       .  S
N3703      H3723   1.046       .  S
N3703      H3724   1.045       .  S
C3705      C3708   1.401       .  A
C3705      C3712   1.410       .  A
N3706      H3721   1.046       .  S
N3706      H3722   1.046       .  S
C3708      C3709   1.397       .  A
C3708      H3713   1.084       .  S
C3709      C3710   1.409       .  A
C3709      N3714   1.433       .  S
C3710      C3711   1.405       .  A
C3711      C3712   1.405       .  A
C3711      H3715   1.084       .  S
C3712      N3716   1.438       .  S
N3714      H3717   1.046       .  S
N3714      H3718   1.046       .  S
N3716      H3719   1.046       .  S
N3716      H3720   1.046       .  S
C3725      C3726   1.415       .  A
C3725      C3730   1.402       .  A
C3726      C3727   1.393       .  A
C3726      N3731   1.440       .  S
C3727      C3728   1.400       .  A
C3727      H3732   1.084       .  S
C3728      C3729   1.407       .  A
C3728      C3733   1.471       .  S
C3729      C3730   1.403       .  A
C3729      N3734   1.437       .  S
C3730      H3735   1.084       .  S
N3731      H3751   1.042       .  S
N3731      H3752   1.046       .  S
C3733      C3736   1.404       .  A
C3733      C3740   1.408       .  A
N3734      H3749   1.046       .  S
N3734      H3750   1.046       .  S
C3736      C3737   1.405       .  A
C3736      H3741   1.084       .  S
C3737      C3738   1.407       .  A
C3737      N3742   1.437       .  S
C3738      C3739   1.399       .  A
C3739      C3740   1.396       .  A
C3739      H3743   1.084       .  S
C3740      N3744   1.438       .  S
N3742      H3745   1.046       .  S
N3742      H3746   1.046       .  S
N3744      H3747   1.046       .  S
N3744      H3748   1.046       .  S
C3753      C3754   1.412       .  A
C3753      C3758   1.403       .  A
C3754      C3755   1.406       .  A
C3754      N3759   1.435       .  S
C3755      C3756   1.401       .  A
C3755      H3760   1.084       .  S
C3756      C3757   1.410       .  A
C3756      C3761   1.482       .  S
C3757      C3758   1.405       .  A
C3757      N3762   1.438       .  S
C3758      H3763   1.083       .  S
N3759      H3779   1.044       .  S
N3759      H3780   1.045       .  S
C3761      C3764   1.400       .  A
C3761      C3768   1.410       .  A
N3762      H3777   1.046       .  S
N3762      H3778   1.046       .  S
C3764      C3765   1.404       .  A
C3764      H3769   1.084       .  S
C3765      C3766   1.414       .  A
C3765      N3770   1.438       .  S
C3766      C3767   1.406       .  A
C3767      C3768   1.409       .  A
C3767      H3771   1.084       .  S
C3768      N3772   1.438       .  S
N3770      H3773   1.046       .  S
N3770      H3774   1.045       .  S
N3772      H3775   1.046       .  S
N3772      H3776   1.046       .  S
C3781      C3782   1.413       .  A
C3781      C3786   1.405       .  A
C3782      C3783   1.398       .  A
C3782      N3787   1.438       .  S
C3783      C3784   1.402       .  A
C3783      H3788   1.083       .  S
C3784      C3785   1.411       .  A
C3784      C3789   1.481       .  S
C3785      C3786   1.403       .  A
C3785      N3790   1.438       .  S
C3786      H3791   1.084       .  S
N3787      H3807   1.046       .  S
N3787      H3808   1.046       .  S
C3789      C3792   1.404       .  A
C3789      C3796   1.411       .  A
N3790      H3805   1.046       .  S
N3790      H3806   1.046       .  S
C3792      C3793   1.402       .  A
C3792      H3797   1.083       .  S
C3793      C3794   1.409       .  A
C3793      N3798   1.438       .  S
C3794      C3795   1.401       .  A
C3795      C3796   1.399       .  A
C3795      H3799   1.082       .  S
C3796      N3800   1.438       .  S
N3798      H3801   1.046       .  S
N3798      H3802   1.046       .  S
N3800      H3803   1.046       .  S
N3800      H3804   1.046       .  S
C3809      C3810   1.416       .  A
C3809      C3814   1.404       .  A
C3810      C3811   1.400       .  A
C3810      N3815   1.440       .  S
C3811      C3812   1.404       .  A
C3811      H3816   1.084       .  S
C3812      C3813   1.410       .  A
C3812      C3817   1.484       .  S
C3813      C3814   1.402       .  A
C3813      N3818   1.438       .  S
C3814      H3819   1.082       .  S
N3815      H3835   1.042       .  S
N3815      H3836   1.046       .  S
C3817      C3820   1.405       .  A
C3817      C3824   1.411       .  A
N3818      H3833   1.046       .  S
N3818      H3834   1.045       .  S
C3820      C3821   1.406       .  A
C3820      H3825   1.083       .  S
C3821      C3822   1.410       .  A
C3821      N3826   1.438       .  S
C3822      C3823   1.402       .  A
C3823      C3824   1.403       .  A
C3823      H3827   1.084       .  S
C3824      N3828   1.438       .  S
N3826      H3829   1.046       .  S
N3826      H3830   1.046       .  S
N3828      H3831   1.046       .  S
N3828      H3832   1.046       .  S
C3837      C3838   1.404       .  A
C3837      C3842   1.401       .  A
C3838      C3839   1.404       .  A
C3838      N3843   1.431       .  S
C3839      C3840   1.404       .  A
C3839      H3844   1.084       .  S
C3840      C3841   1.412       .  A
C3840      C3845   1.485       .  S
C3841      C3842   1.407       .  A
C3841      N3846   1.437       .  S
C3842      H3847   1.083       .  S
N3843      H3863   1.046       .  S
N3843      H3864   1.045       .  S
C3845      C3848   1.400       .  A
C3845      C3852   1.408       .  A
N3846      H3861   1.046       .  S
N3846      H3862   1.046       .  S
C3848      C3849   1.408       .  A
C3848      H3853   1.084       .  S
C3849      C3850   1.419       .  A
C3849      N3854   1.437       .  S
C3850      C3851   1.410       .  A
C3851      C3852   1.408       .  A
C3851      H3855   1.083       .  S
C3852      N3856   1.438       .  S
N3854      H3857   1.046       .  S
N3854      H3858   1.045       .  S
N3856      H3859   1.046       .  S
N3856      H3860   1.046       .  S
C3865      C3866   1.417       .  A
C3865      C3870   1.407       .  A
C3866      C3867   1.404       .  A
C3866      N3871   1.438       .  S
C3867      C3868   1.398       .  A
C3867      H3872   1.084       .  S
C3868      C3869   1.407       .  A
C3868      C3873   1.476       .  S
C3869      C3870   1.407       .  A
C3869      N3874   1.438       .  S
C3870      H3875   1.083       .  S
N3871      H3891   1.046       .  S
N3871      H3892   1.046       .  S
C3873      C3876   1.398       .  A
C3873      C3880   1.408       .  A
N3874      H3889   1.046       .  S
N3874      H3890   1.046       .  S
C3876      C3877   1.399       .  A
C3876      H3881   1.084       .  S
C3877      C3878   1.419       .  A
C3877      N3882   1.440       .  S
C3878      C3879   1.403       .  A
C3879      C3880   1.406       .  A
C3879      H3883   1.084       .  S
C3880      N3884   1.437       .  S
N3882      H3885   1.046       .  S
N3882      H3886   1.042       .  S
N3884      H3887   1.046       .  S
N3884      H3888   1.045       .  S
C3893      C3894   1.414       .  A
C3893      C3898   1.408       .  A
C3894      C3895   1.399       .  A
C3894      N3899   1.433       .  S
C3895      C3896   1.398       .  A
C3895      H3900   1.084       .  S
C3896      C3897   1.405       .  A
C3896      C3901   1.472       .  S
C3897      C3898   1.405       .  A
C3897      N3902   1.437       .  S
C3898      H3903   1.083       .  S
N3899      H3919   1.046       .  S
N3899      H3920   1.046       .  S
C3901      C3904   1.400       .  A
C3901      C3908   1.406       .  A
N3902      H3917   1.046       .  S
N3902      H3918   1.046       .  S
C3904      C3905   1.404       .  A
C3904      H3909   1.084       .  S
C3905      C3906   1.411       .  A
C3905      N3910   1.437       .  S
C3906      C3907   1.405       .  A
C3907      C3908   1.403       .  A
C3907      H3911   1.083       .  S
C3908      N3912   1.437       .  S
N3910      H3913   1.046       .  S
N3910      H3914   1.046       .  S
N3912      H3915   1.046       .  S
N3912      H3916   1.046       .  S
C3921      C3922   1.409       .  A
C3921      C3926   1.400       .  A
C3922      C3923   1.402       .  A
C3922      N3927   1.439       .  S
C3923      C3924   1.404       .  A
C3923      H3928   1.084       .  S
C3924      C3925   1.413       .  A
C3924      C3929   1.484       .  S
C3925      C3926   1.405       .  A
C3925      N3930   1.438       .  S
C3926      H3931   1.084       .  S
N3927      H3947   1.046       .  S
N3927      H3948   1.046       .  S
C3929      C3932   1.403       .  A
C3929      C3936   1.411       .  A
N3930      H3945   1.046       .  S
N3930      H3946   1.046       .  S
C3932      C3933   1.404       .  A
C3932      H3937   1.083       .  S
C3933      C3934   1.410       .  A
C3933      N3938   1.436       .  S
C3934      C3935   1.403       .  A
C3935      C3936   1.403       .  A
C3935      H3939   1.083       .  S
C3936      N3940   1.438       .  S
N3938      H3941   1.045       .  S
N3938      H3942   1.046       .  S
N3940      H3943   1.046       .  S
N3940      H3944   1.046       .  S
C3949      C3950   1.410       .  A
C3949      C3954   1.401       .  A
C3950      C3951   1.402       .  A
C3950      N3955   1.438       .  S
C3951      C3952   1.402       .  A
C3951      H3956   1.084       .  S
C3952      C3953   1.409       .  A
C3952      C3957   1.473       .  S
C3953      C3954   1.401       .  A
C3953      N3958   1.438       .  S
C3954      H3959   1.084       .  S
N3955      H3975   1.046       .  S
N3955      H3976   1.046       .  S
C3957      C3960   1.401       .  A
C3957      C3964   1.408       .  A
N3958      H3973   1.046       .  S
N3958      H3974   1.046       .  S
C3960      C3961   1.402       .  A
C3960      H3965   1.084       .  S
C3961      C3962   1.411       .  A
C3961      N3966   1.438       .  S
C3962      C3963   1.402       .  A
C3963      C3964   1.400       .  A
C3963      H3967   1.082       .  S
C3964      N3968   1.438       .  S
N3966      H3969   1.046       .  S
N3966      H3970   1.046       .  S
N3968      H3971   1.046       .  S
N3968      H3972   1.046       .  S
C3977      C3978   1.416       .  A
C3977      C3982   1.401       .  A
C3978      C3979   1.400       .  A
C3978      N3983   1.438       .  S
C3979      C3980   1.401       .  A
C3979      H3984   1.084       .  S
C3980      C3981   1.405       .  A
C3980      C3985   1.472       .  S
C3981      C3982   1.400       .  A
C3981      N3986   1.437       .  S
C3982      H3987   1.084       .  S
N3983      H4003   1.042       .  S
N3983      H4004   1.046       .  S
C3985      C3988   1.401       .  A
C3985      C3992   1.407       .  A
N3986      H4001   1.046       .  S
N3986      H4002   1.046       .  S
C3988      C3989   1.402       .  A
C3988      H3993   1.084       .  S
C3989      C3990   1.408       .  A
C3989      N3994   1.438       .  S
C3990      C3991   1.403       .  A
C3991      C3992   1.404       .  A
C3991      H3995   1.084       .  S
C3992      N3996   1.437       .  S
N3994      H3997   1.046       .  S
N3994      H3998   1.046       .  S
N3996      H3999   1.046       .  S
N3996      H4000   1.046       .  S
C4005      C4006   1.412       .  A
C4005      C4010   1.404       .  A
C4006      C4007   1.406       .  A
C4006      N4011   1.438       .  S
C4007      C4008   1.405       .  A
C4007      H4012   1.084       .  S
C4008      C4009   1.413       .  A
C4008      C4013   1.492       .  S
C4009      C4010   1.407       .  A
C4009      N4014   1.438       .  S
C4010      H4015   1.084       .  S
N4011      H4031   1.046       .  S
N4011      H4032   1.046       .  S
C4013      C4016   1.407       .  A
C4013      C4020   1.422       .  A
N4014      H4029   1.046       .  S
N4014      H4030   1.046       .  S
C4016      C4017   1.402       .  A
C4016      H4021   1.084       .  S
C4017      C4018   1.404       .  A
C4017      N4022   1.431       .  S
C4018      C4019   1.400       .  A
C4019      C4020   1.403       .  A
C4019      H4023   1.083       .  S
C4020      N4024   1.440       .  S
N4022      H4025   1.046       .  S
N4022      H4026   1.045       .  S
N4024      H4027   1.046       .  S
N4024      H4028   1.042       .  S
C4033      C4034   1.405       .  A
C4033      C4038   1.401       .  A
C4034      C4035   1.399       .  A
C4034      N4039   1.432       .  S
C4035      C4036   1.401       .  A
C4035      H4040   1.084       .  S
C4036      C4037   1.409       .  A
C4036      C4041   1.474       .  S
C4037      C4038   1.402       .  A
C4037      N4042   1.432       .  S
C4038      H4043   1.084       .  S
N4039      H4059   1.045       .  S
N4039      H4060   1.046       .  S
C4041      C4044   1.399       .  A
C4041      C4048   1.405       .  A
N4042      H4057   1.045       .  S
N4042      H4058   1.046       .  S
C4044      C4045   1.403       .  A
C4044      H4049   1.084       .  S
C4045      C4046   1.417       .  A
C4045      N4050   1.432       .  S
C4046      C4047   1.406       .  A
C4047      C4048   1.398       .  A
C4047      H4051   1.083       .  S
C4048      N4052   1.433       .  S
N4050      H4053   1.046       .  S
N4050      H4054   1.046       .  S
N4052      H4055   1.045       .  S
N4052      H4056   1.046       .  S
C4061      C4062   1.410       .  A
C4061      C4066   1.401       .  A
C4062      C4063   1.403       .  A
C4062      N4067   1.438       .  S
C4063      C4064   1.401       .  A
C4063      H4068   1.084       .  S
C4064      C4065   1.408       .  A
C4064      C4069   1.471       .  S
C4065      C4066   1.401       .  A
C4065      N4070   1.438       .  S
C4066      H4071   1.084       .  S
N4067      H4087   1.046       .  S
N4067      H4088   1.046       .  S
C4069      C4072   1.400       .  A
C4069      C4076   1.408       .  A
N4070      H4085   1.046       .  S
N4070      H4086   1.046       .  S
C4072      C4073   1.402       .  A
C4072      H4077   1.084       .  S
C4073      C4074   1.410       .  A
C4073      N4078   1.438       .  S
C4074      C4075   1.402       .  A
C4075      C4076   1.401       .  A
C4075      H4079   1.082       .  S
C4076      N4080   1.438       .  S
N4078      H4081   1.046       .  S
N4078      H4082   1.046       .  S
N4080      H4083   1.046       .  S
N4080      H4084   1.046       .  S
C4089      C4090   1.408       .  A
C4089      C4094   1.400       .  A
C4090      C4091   1.406       .  A
C4090      N4095   1.437       .  S
C4091      C4092   1.405       .  A
C4091      H4096   1.084       .  S
C4092      C4093   1.413       .  A
C4092      C4097   1.487       .  S
C4093      C4094   1.405       .  A
C4093      N4098   1.438       .  S
C4094      H4099   1.083       .  S
N4095      H4115   1.045       .  S
N4095      H4116   1.045       .  S
C4097      C4100   1.403       .  A
C4097      C4104   1.411       .  A
N4098      H4113   1.046       .  S
N4098      H4114   1.046       .  S
C4100      C4101   1.406       .  A
C4100      H4105   1.084       .  S
C4101      C4102   1.414       .  A
C4101      N4106   1.438       .  S
C4102      C4103   1.405       .  A
C4103      C4104   1.406       .  A
C4103      H4107   1.084       .  S
C4104      N4108   1.438       .  S
N4106      H4109   1.046       .  S
N4106      H4110   1.045       .  S
N4108      H4111   1.046       .  S
N4108      H4112   1.046       .  S
C4117      C4118   1.411       .  A
C4117      C4122   1.405       .  A
C4118      C4119   1.405       .  A
C4118      N4123   1.432       .  S
C4119      C4120   1.403       .  A
C4119      H4124   1.084       .  S
C4120      C4121   1.409       .  A
C4120      C4125   1.484       .  S
C4121      C4122   1.407       .  A
C4121      N4126   1.438       .  S
C4122      H4127   1.084       .  S
N4123      H4143   1.045       .  S
N4123      H4144   1.046       .  S
C4125      C4128   1.402       .  A
C4125      C4132   1.406       .  A
N4126      H4141   1.045       .  S
N4126      H4142   1.046       .  S
C4128      C4129   1.410       .  A
C4128      H4133   1.084       .  S
C4129      C4130   1.419       .  A
C4129      N4134   1.438       .  S
C4130      C4131   1.409       .  A
C4131      C4132   1.405       .  A
C4131      H4135   1.083       .  S
C4132      N4136   1.438       .  S
N4134      H4137   1.046       .  S
N4134      H4138   1.046       .  S
N4136      H4139   1.045       .  S
N4136      H4140   1.046       .  S
C4145      C4146   1.411       .  A
C4145      C4150   1.403       .  A
C4146      C4147   1.408       .  A
C4146      N4151   1.432       .  S
C4147      C4148   1.403       .  A
C4147      H4152   1.084       .  S
C4148      C4149   1.408       .  A
C4148      C4153   1.483       .  S
C4149      C4150   1.404       .  A
C4149      N4154   1.438       .  S
C4150      H4155   1.084       .  S
N4151      H4171   1.046       .  S
N4151      H4172   1.045       .  S
C4153      C4156   1.400       .  A
C4153      C4160   1.407       .  A
N4154      H4169   1.045       .  S
N4154      H4170   1.046       .  S
C4156      C4157   1.408       .  A
C4156      H4161   1.084       .  S
C4157      C4158   1.419       .  A
C4157      N4162   1.437       .  S
C4158      C4159   1.410       .  A
C4159      C4160   1.407       .  A
C4159      H4163   1.083       .  S
C4160      N4164   1.438       .  S
N4162      H4165   1.045       .  S
N4162      H4166   1.046       .  S
N4164      H4167   1.045       .  S
N4164      H4168   1.046       .  S
C4173      C4174   1.410       .  A
C4173      C4178   1.401       .  A
C4174      C4175   1.403       .  A
C4174      N4179   1.436       .  S
C4175      C4176   1.403       .  A
C4175      H4180   1.083       .  S
C4176      C4177   1.412       .  A
C4176      C4181   1.482       .  S
C4177      C4178   1.401       .  A
C4177      N4182   1.438       .  S
C4178      H4183   1.083       .  S
N4179      H4199   1.045       .  S
N4179      H4200   1.045       .  S
C4181      C4184   1.402       .  A
C4181      C4188   1.412       .  A
N4182      H4197   1.046       .  S
N4182      H4198   1.046       .  S
C4184      C4185   1.401       .  A
C4184      H4189   1.084       .  S
C4185      C4186   1.412       .  A
C4185      N4190   1.438       .  S
C4186      C4187   1.403       .  A
C4187      C4188   1.405       .  A
C4187      H4191   1.084       .  S
C4188      N4192   1.438       .  S
N4190      H4193   1.046       .  S
N4190      H4194   1.045       .  S
N4192      H4195   1.046       .  S
N4192      H4196   1.045       .  S
C4201      C4202   1.407       .  A
C4201      C4206   1.403       .  A
C4202      C4203   1.400       .  A
C4202      N4207   1.432       .  S
C4203      C4204   1.402       .  A
C4203      H4208   1.084       .  S
C4204      C4205   1.413       .  A
C4204      C4209   1.485       .  S
C4205      C4206   1.407       .  A
C4205      N4210   1.438       .  S
C4206      H4211   1.083       .  S
N4207      H4227   1.046       .  S
N4207      H4228   1.046       .  S
C4209      C4212   1.402       .  A
C4209      C4216   1.409       .  A
N4210      H4225   1.046       .  S
N4210      H4226   1.045       .  S
C4212      C4213   1.406       .  A
C4212      H4217   1.084       .  S
C4213      C4214   1.417       .  A
C4213      N4218   1.438       .  S
C4214      C4215   1.408       .  A
C4215      C4216   1.404       .  A
C4215      H4219   1.083       .  S
C4216      N4220   1.438       .  S
N4218      H4221   1.046       .  S
N4218      H4222   1.046       .  S
N4220      H4223   1.046       .  S
N4220      H4224   1.046       .  S
C4229      C4230   1.407       .  A
C4229      C4234   1.402       .  A
C4230      C4231   1.401       .  A
C4230      N4235   1.432       .  S
C4231      C4232   1.402       .  A
C4231      H4236   1.084       .  S
C4232      C4233   1.409       .  A
C4232      C4237   1.477       .  S
C4233      C4234   1.405       .  A
C4233      N4238   1.437       .  S
C4234      H4239   1.084       .  S
N4235      H4255   1.046       .  S
N4235      H4256   1.045       .  S
C4237      C4240   1.401       .  A
C4237      C4244   1.405       .  A
N4238      H4253   1.046       .  S
N4238      H4254   1.046       .  S
C4240      C4241   1.409       .  A
C4240      H4245   1.084       .  S
C4241      C4242   1.417       .  A
C4241      N4246   1.437       .  S
C4242      C4243   1.408       .  A
C4243      C4244   1.401       .  A
C4243      H4247   1.083       .  S
C4244      N4248   1.438       .  S
N4246      H4249   1.046       .  S
N4246      H4250   1.045       .  S
N4248      H4251   1.046       .  S
N4248      H4252   1.046       .  S
C4257      C4258   1.409       .  A
C4257      C4262   1.403       .  A
C4258      C4259   1.405       .  A
C4258      N4263   1.438       .  S
C4259      C4260   1.403       .  A
C4259      H4264   1.084       .  S
C4260      C4261   1.412       .  A
C4260      C4265   1.485       .  S
C4261      C4262   1.408       .  A
C4261      N4266   1.438       .  S
C4262      H4267   1.084       .  S
N4263      H4283   1.046       .  S
N4263      H4284   1.045       .  S
C4265      C4268   1.404       .  A
C4265      C4272   1.412       .  A
N4266      H4281   1.046       .  S
N4266      H4282   1.046       .  S
C4268      C4269   1.404       .  A
C4268      H4273   1.084       .  S
C4269      C4270   1.408       .  A
C4269      N4274   1.431       .  S
C4270      C4271   1.402       .  A
C4271      C4272   1.404       .  A
C4271      H4275   1.083       .  S
C4272      N4276   1.438       .  S
N4274      H4277   1.045       .  S
N4274      H4278   1.046       .  S
N4276      H4279   1.046       .  S
N4276      H4280   1.046       .  S
C4285      C4286   1.411       .  A
C4285      C4290   1.403       .  A
C4286      C4287   1.403       .  A
C4286      N4291   1.438       .  S
C4287      C4288   1.402       .  A
C4287      H4292   1.084       .  S
C4288      C4289   1.409       .  A
C4288      C4293   1.482       .  S
C4289      C4290   1.405       .  A
C4289      N4294   1.437       .  S
C4290      H4295   1.080       .  S
N4291      H4311   1.045       .  S
N4291      H4312   1.046       .  S
C4293      C4296   1.404       .  A
C4293      C4300   1.408       .  A
N4294      H4309   1.046       .  S
N4294      H4310   1.046       .  S
C4296      C4297   1.407       .  A
C4296      H4301   1.084       .  S
C4297      C4298   1.413       .  A
C4297      N4302   1.438       .  S
C4298      C4299   1.406       .  A
C4299      C4300   1.403       .  A
C4299      H4303   1.084       .  S
C4300      N4304   1.438       .  S
N4302      H4305   1.046       .  S
N4302      H4306   1.046       .  S
N4304      H4307   1.046       .  S
N4304      H4308   1.046       .  S
C4313      C4314   1.416       .  A
C4313      C4318   1.404       .  A
C4314      C4315   1.405       .  A
C4314      N4319   1.438       .  S
C4315      C4316   1.400       .  A
C4315      H4320   1.084       .  S
C4316      C4317   1.408       .  A
C4316      C4321   1.477       .  S
C4317      C4318   1.403       .  A
C4317      N4322   1.438       .  S
C4318      H4323   1.084       .  S
N4319      H4339   1.046       .  S
N4319      H4340   1.046       .  S
C4321      C4324   1.399       .  A
C4321      C4328   1.408       .  A
N4322      H4337   1.046       .  S
N4322      H4338   1.046       .  S
C4324      C4325   1.401       .  A
C4324      H4329   1.084       .  S
C4325      C4326   1.413       .  A
C4325      N4330   1.438       .  S
C4326      C4327   1.405       .  A
C4327      C4328   1.407       .  A
C4327      H4331   1.081       .  S
C4328      N4332   1.437       .  S
N4330      H4333   1.046       .  S
N4330      H4334   1.046       .  S
N4332      H4335   1.046       .  S
N4332      H4336   1.046       .  S
C4341      C4342   1.414       .  A
C4341      C4346   1.405       .  A
C4342      C4343   1.405       .  A
C4342      N4347   1.438       .  S
C4343      C4344   1.404       .  A
C4343      H4348   1.084       .  S
C4344      C4345   1.410       .  A
C4344      C4349   1.487       .  S
C4345      C4346   1.405       .  A
C4345      N4350   1.438       .  S
C4346      H4351   1.083       .  S
N4347      H4367   1.046       .  S
N4347      H4368   1.046       .  S
C4349      C4352   1.408       .  A
C4349      C4356   1.413       .  A
N4350      H4365   1.046       .  S
N4350      H4366   1.046       .  S
C4352      C4353   1.408       .  A
C4352      H4357   1.083       .  S
C4353      C4354   1.405       .  A
C4353      N4358   1.436       .  S
C4354      C4355   1.397       .  A
C4355      C4356   1.400       .  A
C4355      H4359   1.083       .  S
C4356      N4360   1.438       .  S
N4358      H4361   1.046       .  S
N4358      H4362   1.045       .  S
N4360      H4363   1.046       .  S
N4360      H4364   1.046       .  S
C4369      C4370   1.414       .  A
C4369      C4374   1.408       .  A
C4370      C4371   1.401       .  A
C4370      N4375   1.432       .  S
C4371      C4372   1.399       .  A
C4371      H4376   1.084       .  S
C4372      C4373   1.410       .  A
C4372      C4377   1.485       .  S
C4373      C4374   1.413       .  A
C4373      N4378   1.437       .  S
C4374      H4379   1.081       .  S
N4375      H4395   1.046       .  S
N4375      H4396   1.046       .  S
C4377      C4380   1.402       .  A
C4377      C4384   1.407       .  A
N4378      H4393   1.046       .  S
N4378      H4394   1.045       .  S
C4380      C4381   1.412       .  A
C4380      H4385   1.084       .  S
C4381      C4382   1.418       .  A
C4381      N4386   1.437       .  S
C4382      C4383   1.408       .  A
C4383      C4384   1.404       .  A
C4383      H4387   1.083       .  S
C4384      N4388   1.438       .  S
N4386      H4389   1.046       .  S
N4386      H4390   1.046   1_655  S
N4388      H4391   1.046       .  S
N4388      H4392   1.046       .  S
C4397      C4398   1.412       .  A
C4397      C4402   1.403       .  A
C4398      C4399   1.406       .  A
C4398      N4403   1.438       .  S
C4399      C4400   1.405       .  A
C4399      H4404   1.083       .  S
C4400      C4401   1.414       .  A
C4400      C4405   1.496       .  S
C4401      C4402   1.411       .  A
C4401      N4406   1.437       .  S
C4402      H4407   1.080       .  S
N4403      H4423   1.046       .  S
N4403      H4424   1.046       .  S
C4405      C4408   1.408       .  A
C4405      C4412   1.413       .  A
N4406      H4421   1.046       .  S
N4406      H4422   1.046       .  S
C4408      C4409   1.411       .  A
C4408      H4413   1.083       .  S
C4409      C4410   1.411       .  A
C4409      N4414   1.437       .  S
C4410      C4411   1.404       .  A
C4411      C4412   1.406       .  A
C4411      H4415   1.084       .  S
C4412      N4416   1.438       .  S
N4414      H4417   1.046       .  S
N4414      H4418   1.046       .  S
N4416      H4419   1.046       .  S
N4416      H4420   1.046       .  S
C4425      C4426   1.413       .  A
C4425      C4430   1.401       .  A
C4426      C4427   1.402       .  A
C4426      N4431   1.437       .  S
C4427      C4428   1.404       .  A
C4427      H4432   1.084       .  S
C4428      C4429   1.410       .  A
C4428      C4433   1.484       .  S
C4429      C4430   1.403       .  A
C4429      N4434   1.438       .  S
C4430      H4435   1.082       .  S
N4431      H4451   1.044       .  S
N4431      H4452   1.046       .  S
C4433      C4436   1.402       .  A
C4433      C4440   1.411       .  A
N4434      H4449   1.046       .  S
N4434      H4450   1.046       .  S
C4436      C4437   1.405       .  A
C4436      H4441   1.084       .  S
C4437      C4438   1.414       .  A
C4437      N4442   1.438       .  S
C4438      C4439   1.403       .  A
C4439      C4440   1.407       .  A
C4439      H4443   1.084       .  S
C4440      N4444   1.438       .  S
N4442      H4445   1.046       .  S
N4442      H4446   1.045       .  S
N4444      H4447   1.046       .  S
N4444      H4448   1.046       .  S
C4453      C4454   1.412       .  A
C4453      C4458   1.404       .  A
C4454      C4455   1.407       .  A
C4454      N4459   1.438       .  S
C4455      C4456   1.401       .  A
C4455      H4460   1.084       .  S
C4456      C4457   1.410       .  A
C4456      C4461   1.482       .  S
C4457      C4458   1.409       .  A
C4457      N4462   1.437       .  S
C4458      H4463   1.084       .  S
N4459      H4479   1.046       .  S
N4459      H4480   1.046       .  S
C4461      C4464   1.397       .  A
C4461      C4468   1.409       .  A
N4462      H4477   1.046       .  S
N4462      H4478   1.045       .  S
C4464      C4465   1.400       .  A
C4464      H4469   1.084       .  S
C4465      C4466   1.414       .  A
C4465      N4470   1.432       .  S
C4466      C4467   1.409       .  A
C4467      C4468   1.412       .  A
C4467      H4471   1.081       .  S
C4468      N4472   1.437       .  S
N4470      H4473   1.046       .  S
N4470      H4474   1.045       .  S
N4472      H4475   1.045       .  S
N4472      H4476   1.045       .  S
C4481      C4482   1.412       .  A
C4481      C4486   1.406       .  A
C4482      C4483   1.403       .  A
C4482      N4487   1.438       .  S
C4483      C4484   1.402       .  A
C4483      H4488   1.084       .  S
C4484      C4485   1.412       .  A
C4484      C4489   1.489       .  S
C4485      C4486   1.412       .  A
C4485      N4490   1.437       .  S
C4486      H4491   1.083       .  S
N4487      H4507   1.046       .  S
N4487      H4508   1.046       .  S
C4489      C4492   1.405       .  A
C4489      C4496   1.412       .  A
N4490      H4505   1.046       .  S
N4490      H4506   1.046       .  S
C4492      C4493   1.411       .  A
C4492      H4497   1.083       .  S
C4493      C4494   1.413       .  A
C4493      N4498   1.438       .  S
C4494      C4495   1.401       .  A
C4495      C4496   1.404       .  A
C4495      H4499   1.084       .  S
C4496      N4500   1.438       .  S
N4498      H4501   1.046       .  S
N4498      H4502   1.046       .  S
N4500      H4503   1.046       .  S
N4500      H4504   1.046       .  S
C4509      C4510   1.415       .  A
C4509      C4514   1.402       .  A
C4510      C4511   1.402       .  A
C4510      N4515   1.437       .  S
C4511      C4512   1.401       .  A
C4511      H4516   1.084       .  S
C4512      C4513   1.408       .  A
C4512      C4517   1.475       .  S
C4513      C4514   1.402       .  A
C4513      N4518   1.438       .  S
C4514      H4519   1.083       .  S
N4515      H4535   1.044       .  S
N4515      H4536   1.046       .  S
C4517      C4520   1.399       .  A
C4517      C4524   1.407       .  A
N4518      H4533   1.046       .  S
N4518      H4534   1.045       .  S
C4520      C4521   1.406       .  A
C4520      H4525   1.084       .  S
C4521      C4522   1.416       .  A
C4521      N4526   1.438       .  S
C4522      C4523   1.406       .  A
C4523      C4524   1.404       .  A
C4523      H4527   1.084       .  S
C4524      N4528   1.438       .  S
N4526      H4529   1.046       .  S
N4526      H4530   1.045       .  S
N4528      H4531   1.046       .  S
N4528      H4532   1.045       .  S
C4537      C4538   1.409       .  A
C4537      C4542   1.400       .  A
C4538      C4539   1.396       .  A
C4538      N4543   1.432       .  S
C4539      C4540   1.403       .  A
C4539      H4544   1.084       .  S
C4540      C4541   1.419       .  A
C4540      C4545   1.482       .  S
C4541      C4542   1.404       .  A
C4541      N4546   1.438       .  S
C4542      H4547   1.084       .  S
N4543      H4563   1.045       .  S
N4543      H4564   1.044       .  S
C4545      C4548   1.402       .  A
C4545      C4552   1.405       .  A
N4546      H4561   1.045       .  S
N4546      H4562   1.043       .  S
C4548      C4549   1.408       .  A
C4548      H4553   1.084       .  S
C4549      C4550   1.415       .  A
C4549      N4554   1.438       .  S
C4550      C4551   1.407       .  A
C4551      C4552   1.403       .  A
C4551      H4555   1.084       .  S
C4552      N4556   1.432       .  S
N4554      H4557   1.046       .  S
N4554      H4558   1.045       .  S
N4556      H4559   1.046       .  S
N4556      H4560   1.046       .  S
C4565      C4566   1.416       .  A
C4565      C4570   1.403       .  A
C4566      C4567   1.403       .  A
C4566      N4571   1.437       .  S
C4567      C4568   1.405       .  A
C4567      H4572   1.084       .  S
C4568      C4569   1.411       .  A
C4568      C4573   1.487       .  S
C4569      C4570   1.402       .  A
C4569      N4574   1.438       .  S
C4570      H4575   1.084       .  S
N4571      H4591   1.043       .  S
N4571      H4592   1.046       .  S
C4573      C4576   1.405       .  A
C4573      C4580   1.413       .  A
N4574      H4589   1.046       .  S
N4574      H4590   1.046       .  S
C4576      C4577   1.402       .  A
C4576      H4581   1.084       .  S
C4577      C4578   1.407       .  A
C4577      N4582   1.432       .  S
C4578      C4579   1.402       .  A
C4579      C4580   1.405       .  A
C4579      H4583   1.084       .  S
C4580      N4584   1.438       .  S
N4582      H4585   1.046       .  S
N4582      H4586   1.046       .  S
N4584      H4587   1.046       .  S
N4584      H4588   1.046       .  S
C4593      C4594   1.407       .  A
C4593      C4598   1.403       .  A
C4594      C4595   1.404       .  A
C4594      N4599   1.431       .  S
C4595      C4596   1.404       .  A
C4595      H4600   1.084       .  S
C4596      C4597   1.408       .  A
C4596      C4601   1.485       .  S
C4597      C4598   1.403       .  A
C4597      N4602   1.432       .  S
C4598      H4603   1.083       .  S
N4599      H4619   1.045       .  S
N4599      H4620   1.046       .  S
C4601      C4604   1.401       .  A
C4601      C4608   1.407       .  A
N4602      H4617   1.046       .  S
N4602      H4618   1.046       .  S
C4604      C4605   1.409       .  A
C4604      H4609   1.084       .  S
C4605      C4606   1.420       .  A
C4605      N4610   1.438       .  S
C4606      C4607   1.409       .  A
C4607      C4608   1.405       .  A
C4607      H4611   1.083       .  S
C4608      N4612   1.438       .  S
N4610      H4613   1.046       .  S
N4610      H4614   1.045       .  S
N4612      H4615   1.045       .  S
N4612      H4616   1.046       .  S
C4621      C4622   1.405       .  A
C4621      C4626   1.403       .  A
C4622      C4623   1.399       .  A
C4622      N4627   1.432       .  S
C4623      C4624   1.404       .  A
C4623      H4628   1.084       .  S
C4624      C4625   1.411       .  A
C4624      C4629   1.480       .  S
C4625      C4626   1.403       .  A
C4625      N4630   1.438       .  S
C4626      H4631   1.084       .  S
N4627      H4647   1.046       .  S
N4627      H4648   1.046       .  S
C4629      C4632   1.401       .  A
C4629      C4636   1.409       .  A
N4630      H4645   1.046       .  S
N4630      H4646   1.046       .  S
C4632      C4633   1.406       .  A
C4632      H4637   1.084       .  S
C4633      C4634   1.418       .  A
C4633      N4638   1.438       .  S
C4634      C4635   1.406       .  A
C4635      C4636   1.398       .  A
C4635      H4639   1.083       .  S
C4636      N4640   1.439       .  S
N4638      H4641   1.046       .  S
N4638      H4642   1.046       .  S
N4640      H4643   1.046       .  S
N4640      H4644   1.046       .  S
C4649      C4650   1.409       .  A
C4649      C4654   1.401       .  A
C4650      C4651   1.399       .  A
C4650      N4655   1.438       .  S
C4651      C4652   1.399       .  A
C4651      H4656   1.084       .  S
C4652      C4653   1.408       .  A
C4652      C4657   1.469       .  S
C4653      C4654   1.403       .  A
C4653      N4658   1.437       .  S
C4654      H4659   1.084       .  S
N4655      H4675   1.045       .  S
N4655      H4676   1.046       .  S
C4657      C4660   1.399       .  A
C4657      C4664   1.405       .  A
N4658      H4673   1.046       .  S
N4658      H4674   1.045       .  S
C4660      C4661   1.399       .  A
C4660      H4665   1.084       .  S
C4661      C4662   1.413       .  A
C4661      N4666   1.433       .  S
C4662      C4663   1.407       .  A
C4663      C4664   1.402       .  A
C4663      H4667   1.083       .  S
C4664      N4668   1.438       .  S
N4666      H4669   1.046       .  S
N4666      H4670   1.046       .  S
N4668      H4671   1.046       .  S
N4668      H4672   1.046       .  S
C4677      C4678   1.410       .  A
C4677      C4682   1.404       .  A
C4678      C4679   1.407       .  A
C4678      N4683   1.438       .  S
C4679      C4680   1.405       .  A
C4679      H4684   1.084       .  S
C4680      C4681   1.413       .  A
C4680      C4685   1.493       .  S
C4681      C4682   1.408       .  A
C4681      N4686   1.438       .  S
C4682      H4687   1.084       .  S
N4683      H4703   1.046       .  S
N4683      H4704   1.046       .  S
C4685      C4688   1.404       .  A
C4685      C4692   1.413       .  A
N4686      H4701   1.046       .  S
N4686      H4702   1.046       .  S
C4688      C4689   1.408       .  A
C4688      H4693   1.083       .  S
C4689      C4690   1.413       .  A
C4689      N4694   1.436       .  S
C4690      C4691   1.403       .  A
C4691      C4692   1.407       .  A
C4691      H4695   1.083       .  S
C4692      N4696   1.438       .  S
N4694      H4697   1.045       .  S
N4694      H4698   1.046       .  S
N4696      H4699   1.046       .  S
N4696      H4700   1.046       .  S
C4705      C4706   1.412       .  A
C4705      C4710   1.403       .  A
C4706      C4707   1.406       .  A
C4706      N4711   1.438       .  S
C4707      C4708   1.403       .  A
C4707      H4712   1.084       .  S
C4708      C4709   1.410       .  A
C4708      C4713   1.485       .  S
C4709      C4710   1.404       .  A
C4709      N4714   1.438       .  S
C4710      H4715   1.083       .  S
N4711      H4731   1.046       .  S
N4711      H4732   1.046       .  S
C4713      C4716   1.401       .  A
C4713      C4720   1.409       .  A
N4714      H4729   1.046       .  S
N4714      H4730   1.046       .  S
C4716      C4717   1.406       .  A
C4716      H4721   1.084       .  S
C4717      C4718   1.417       .  A
C4717      N4722   1.438       .  S
C4718      C4719   1.408       .  A
C4719      C4720   1.406       .  A
C4719      H4723   1.083       .  S
C4720      N4724   1.438       .  S
N4722      H4725   1.046       .  S
N4722      H4726   1.046       .  S
N4724      H4727   1.046       .  S
N4724      H4728   1.046       .  S
C4733      C4734   1.411       .  A
C4733      C4738   1.407       .  A
C4734      C4735   1.403       .  A
C4734      N4739   1.432       .  S
C4735      C4736   1.401       .  A
C4735      H4740   1.084       .  S
C4736      C4737   1.409       .  A
C4736      C4741   1.482       .  S
C4737      C4738   1.407       .  A
C4737      N4742   1.437       .  S
C4738      H4743   1.081       .  S
N4739      H4759   1.046       .  S
N4739      H4760   1.045       .  S
C4741      C4744   1.400       .  A
C4741      C4748   1.408       .  A
N4742      H4757   1.046       .  S
N4742      H4758   1.046       .  S
C4744      C4745   1.406       .  A
C4744      H4749   1.084       .  S
C4745      C4746   1.418       .  A
C4745      N4750   1.438       .  S
C4746      C4747   1.407       .  A
C4747      C4748   1.409       .  A
C4747      H4751   1.083       .  S
C4748      N4752   1.437       .  S
N4750      H4753   1.046       .  S
N4750      H4754   1.046       .  S
N4752      H4755   1.045       .  S
N4752      H4756   1.046       .  S
C4761      C4762   1.407       .  A
C4761      C4766   1.401       .  A
C4762      C4763   1.401       .  A
C4762      N4767   1.437       .  S
C4763      C4764   1.404       .  A
C4763      H4768   1.084       .  S
C4764      C4765   1.413       .  A
C4764      C4769   1.485       .  S
C4765      C4766   1.407       .  A
C4765      N4770   1.437       .  S
C4766      H4771   1.083       .  S
N4767      H4787   1.046       .  S
N4767      H4788   1.045       .  S
C4769      C4772   1.404       .  A
C4769      C4776   1.413       .  A
N4770      H4785   1.046       .  S
N4770      H4786   1.045       .  S
C4772      C4773   1.408       .  A
C4772      H4777   1.084       .  S
C4773      C4774   1.410       .  A
C4773      N4778   1.438       .  S
C4774      C4775   1.400       .  A
C4775      C4776   1.405       .  A
C4775      H4779   1.084       .  S
C4776      N4780   1.438       .  S
N4778      H4781   1.046       .  S
N4778      H4782   1.045       .  S
N4780      H4783   1.046       .  S
N4780      H4784   1.046       .  S
C4789      C4790   1.412       .  A
C4789      C4794   1.403       .  A
C4790      C4791   1.405       .  A
C4790      N4795   1.437       .  S
C4791      C4792   1.400       .  A
C4791      H4796   1.084       .  S
C4792      C4793   1.411       .  A
C4792      C4797   1.478       .  S
C4793      C4794   1.407       .  A
C4793      N4798   1.439       .  S
C4794      H4799   1.083       .  S
N4795      H4815   1.046       .  S
N4795      H4816   1.046       .  S
C4797      C4800   1.400       .  A
C4797      C4804   1.410       .  A
N4798      H4813   1.046       .  S
N4798      H4814   1.044       .  S
C4800      C4801   1.406       .  A
C4800      H4805   1.084       .  S
C4801      C4802   1.414       .  A
C4801      N4806   1.438       .  S
C4802      C4803   1.405       .  A
C4803      C4804   1.405       .  A
C4803      H4807   1.084       .  S
C4804      N4808   1.439       .  S
N4806      H4809   1.046       .  S
N4806      H4810   1.046       .  S
N4808      H4811   1.046       .  S
N4808      H4812   1.044       .  S
C4817      C4818   1.415       .  A
C4817      C4822   1.404       .  A
C4818      C4819   1.405       .  A
C4818      N4823   1.438       .  S
C4819      C4820   1.399       .  A
C4819      H4824   1.084       .  S
C4820      C4821   1.409       .  A
C4820      C4825   1.481       .  S
C4821      C4822   1.407       .  A
C4821      N4826   1.438       .  S
C4822      H4827   1.081       .  S
N4823      H4843   1.046       .  S
N4823      H4844   1.046       .  S
C4825      C4828   1.400       .  A
C4825      C4832   1.407       .  A
N4826      H4841   1.046       .  S
N4826      H4842   1.044       .  S
C4828      C4829   1.409       .  A
C4828      H4833   1.084       .  S
C4829      C4830   1.419       .  A
C4829      N4834   1.437       .  S
C4830      C4831   1.410       .  A
C4831      C4832   1.405       .  A
C4831      H4835   1.083       .  S
C4832      N4836   1.439       .  S
N4834      H4837   1.046       .  S
N4834      H4838   1.046       .  S
N4836      H4839   1.046       .  S
N4836      H4840   1.045       .  S
C4845      C4846   1.414       .  A
C4845      C4850   1.402       .  A
C4846      C4847   1.404       .  A
C4846      N4851   1.437       .  S
C4847      C4848   1.405       .  A
C4847      H4852   1.084       .  S
C4848      C4849   1.411       .  A
C4848      C4853   1.489       .  S
C4849      C4850   1.406       .  A
C4849      N4854   1.438       .  S
C4850      H4855   1.083       .  S
N4851      H4871   1.044       .  S
N4851      H4872   1.045       .  S
C4853      C4856   1.403       .  A
C4853      C4860   1.411       .  A
N4854      H4869   1.046       .  S
N4854      H4870   1.046       .  S
C4856      C4857   1.407       .  A
C4856      H4861   1.084       .  S
C4857      C4858   1.414       .  A
C4857      N4862   1.438       .  S
C4858      C4859   1.406       .  A
C4859      C4860   1.408       .  A
C4859      H4863   1.084       .  S
C4860      N4864   1.438       .  S
N4862      H4865   1.046       .  S
N4862      H4866   1.046       .  S
N4864      H4867   1.046       .  S
N4864      H4868   1.046       .  S
