geometry optimzed in LAMMPS
_audit_creation_date              2020-11-30 
_audit_creation_method            'lammps2cif' 
_symmetry_space_group_name_H-M    'P1' 
_symmetry_Int_Tables_number       1 
_symmetry_cell_setting            triclinic 
loop_ 
_symmetry_equiv_pos_as_xyz 
  x,y,z 
_cell_length_a                    26.26262665 
_cell_length_b                    26.375166086716003 
_cell_length_c                    36.38802276222047 
_cell_angle_alpha                 89.12391645145672 
_cell_angle_beta                  90.4841816590427 
_cell_angle_gamma                 89.83863876956457 
loop_ 
_atom_site_label 
_atom_site_type_symbol 
_atom_site_fract_x 
_atom_site_fract_y 
_atom_site_fract_z 
_atom_site_charge 
C1          C  0.71709514  0.73273664  0.99449629     0.04700
C2          C  0.70025061  0.71278858  0.46090240    -0.11500
C3          C  0.66367957  0.67414438  0.46026988     0.02200
C4          C  0.64413420  0.65523215  0.49341242    -0.10000
C5          C  0.66026062  0.67488158  0.02705992     0.04700
C6          C  0.69652423  0.71381695  0.02750887    -0.09400
H7          H  0.71608107  0.72673237  0.43527948     0.10300
H8          H  0.61529941  0.62589693  0.49298776     0.07800
H9          H  0.70870954  0.72930429  0.05354742     0.07600
C10         C  0.21177467  0.73525143  0.99154584     0.04700
C11         C  0.23041406  0.71467549  0.45879117    -0.11500
C12         C  0.26919683  0.67805626  0.45976050     0.02200
C13         C  0.28878454  0.66118741  0.49367874    -0.10000
C14         C  0.27007499  0.68031272  0.02657390     0.04700
C15         C  0.23243415  0.71816573  0.02544532    -0.09400
H16         H  0.21390729  0.72600564  0.43253840     0.10300
H17         H  0.31854900  0.63259962  0.49452253     0.07800
H18         H  0.21872406  0.73353227  0.05097445     0.07600
C19         C  0.71343296  0.22842106  0.99976916     0.04700
C20         C  0.69292670  0.24688351  0.03253897    -0.11500
C21         C  0.65589047  0.28509221  0.03166643     0.02200
C22         C  0.63802783  0.30424513  0.49791142    -0.10000
C23         C  0.65716777  0.28587512  0.46481245     0.04700
C24         C  0.69540360  0.24842434  0.46591611    -0.09400
H25         H  0.70519530  0.23123261  0.05886105     0.10300
H26         H  0.60975373  0.33428372  0.49749940     0.07800
H27         H  0.71100088  0.23488742  0.44041562     0.07600
N28         N  0.96246918  0.90450469  0.99589372    -0.35100
N29         N  0.04120823  0.98181798  0.99608807    -0.55600
N30         N  0.96359496  0.05919987  0.00341676    -0.35100
N31         N  0.88472302  0.98169123  0.00023402    -0.55600
C32         C  0.00307970  0.87762830  0.98446770     0.28500
C33         C  0.92037652  0.87783639  0.98690793     0.28500
C34         C  0.00464260  0.08869952  0.99628759     0.28500
C35         C  0.92144142  0.08814434  0.99778463     0.28500
C36         C  0.07071528  0.93982775  0.99925024     0.37100
C37         C  0.07183439  0.02188952  0.00266749     0.37100
C38         C  0.85605511  0.94012666  0.00675076     0.37100
C39         C  0.85636906  0.02189806  0.01012970     0.37100
C40         C  0.98668814  0.83351860  0.96788311    -0.20400
C41         C  0.93438501  0.83370623  0.96934171    -0.20400
C42         C  0.98805834  0.13737733  0.98709572    -0.20400
C43         C  0.93582880  0.13666697  0.98721577    -0.20400
C44         C  0.12027676  0.95321390  0.00791930    -0.21400
C45         C  0.12124960  0.00506998  0.00931214    -0.21400
C46         C  0.80940251  0.95391789  0.02109932    -0.21400
C47         C  0.80954659  0.00584511  0.02314632    -0.21400
C48         C  0.05451511  0.89006394  0.99122805    -0.16800
C49         C  0.87011715  0.89052133  0.99688234    -0.16800
C50         C  0.87053099  0.07296767  0.00439880    -0.16800
C51         C  0.05649552  0.07343544  0.99979441    -0.16800
H52         H  0.01004913  0.80394204  0.95638629     0.16200
H53         H  0.90955116  0.80427628  0.95920586     0.16200
H54         H  0.01066797  0.17064506  0.98129858     0.16200
H55         H  0.91136548  0.16881220  0.98104506     0.16200
H56         H  0.15284175  0.92842779  0.01177673     0.14400
H57         H  0.15504555  0.02739412  0.01402195     0.14400
H58         H  0.77821479  0.92926611  0.02868467     0.14400
H59         H  0.77849713  0.02917580  0.03264397     0.14400
H60         H  0.96376221  0.93561306  0.01309139     0.27700
H61         H  0.96439105  0.02315042  0.01527196     0.27700
C62         C  0.21201338  0.23118099  0.99719547     0.04700
C63         C  0.23588801  0.24603841  0.46407581    -0.11500
C64         C  0.27097226  0.28603075  0.46332498     0.02200
C65         C  0.28621185  0.30815365  0.49624036    -0.10000
C66         C  0.26540484  0.29222724  0.02967103     0.04700
C67         C  0.22654132  0.25585581  0.02986956    -0.09400
H68         H  0.22730215  0.22708084  0.43864303     0.10300
H69         H  0.31507721  0.33748349  0.49589805     0.07800
H70         H  0.20867171  0.24645060  0.05573411     0.07600
C71         C  0.57725878  0.37635808  0.33074248     0.44000
N72         N  0.52688965  0.39410414  0.28585589     0.02900
C73         C  0.52139259  0.61090207  0.17653985    -0.05000
H74         H  0.50091532  0.64214017  0.31837588     0.08400
C75         C  0.33772749  0.53998837  0.31325659    -0.05300
Co76       Co  0.55761426  0.48795742  0.24501259     0.74600
N77         N  0.51677262  0.57752862  0.28460719    -0.24500
Co78       Co  0.45901224  0.57614131  0.24499952     0.74100
C79         C  0.35364209  0.58705202  0.33041101     0.44100
N80         N  0.37646403  0.42064127  0.28633444     0.02500
N81         N  0.40307177  0.57150629  0.28536490     0.02600
N82         N  0.58426640  0.55201184  0.17716555    -0.45400
H83         H  0.62670095  0.44674782  0.31908109     0.08400
N84         N  0.55406377  0.54383399  0.28477494     0.02900
N85         N  0.40157707  0.57228856  0.20524157     0.02600
C86         C  0.35119120  0.58852824  0.15988425     0.44200
N87         N  0.41404635  0.38738718  0.28608840    -0.24000
C88         C  0.59193286  0.42430409  0.17815027    -0.04900
N89         N  0.53513237  0.36078347  0.31280863    -0.45100
N90         N  0.39239077  0.60560226  0.17835046    -0.45300
C91         C  0.57480054  0.37750402  0.16109067     0.44000
N92         N  0.55213722  0.54449264  0.20452279     0.02900
N93         N  0.41263477  0.38872323  0.20625757    -0.24000
N94         N  0.56075499  0.43098781  0.28527842    -0.24500
N95         N  0.37479683  0.42170856  0.20602462     0.02500
H96         H  0.42923389  0.32348992  0.17370100     0.08400
H97         H  0.30302693  0.51739893  0.17236476     0.08400
N98         N  0.51490267  0.57821703  0.20468809    -0.24500
N99         N  0.37036789  0.53356511  0.28567658    -0.24200
N100        N  0.52546738  0.39478514  0.20576261     0.02900
C101        C  0.57229770  0.59288105  0.32931184     0.44300
C102        C  0.40729209  0.35354184  0.31344067    -0.05400
N103        N  0.36870213  0.53452849  0.20564927    -0.24100
H104        H  0.30557558  0.51585337  0.31934811     0.08400
N105        N  0.58798187  0.55147898  0.31121727    -0.45400
H106        H  0.43228419  0.32196587  0.31994109     0.08400
C107        C  0.35793760  0.37237682  0.16120926     0.44100
C108        C  0.59453346  0.42287895  0.31261394    -0.04900
Co109      Co  0.46983670  0.39028702  0.24600524     0.73800
N110        N  0.34360495  0.41151496  0.31302301    -0.45100
C111        C  0.56740289  0.59329118  0.15833610     0.44400
N112        N  0.53340431  0.36148327  0.17958617    -0.45100
Co113      Co  0.37142907  0.47761411  0.24594145     0.73900
C114        C  0.33535355  0.54143312  0.17799987    -0.05400
C115        C  0.52507167  0.61034337  0.31176864    -0.05000
N116        N  0.55901005  0.43190838  0.20546924    -0.24500
N117        N  0.39425742  0.60464869  0.31162010    -0.45300
H118        H  0.49657614  0.64244490  0.16956151     0.08400
C119        C  0.40535065  0.35595257  0.17903736    -0.05400
Cl120      Cl  0.46445854  0.48305602  0.24552603    -0.48400
C121        C  0.36048694  0.36961885  0.33126182     0.44100
H122        H  0.62367053  0.44857937  0.17127772     0.08400
N123        N  0.34104730  0.41324811  0.17953506    -0.45100
C124        C  0.25796341  0.33692816  0.09002964     0.25100
C125        C  0.28762464  0.31122144  0.06428557    -0.23000
C126        C  0.33996807  0.30469758  0.07102016     0.20000
C127        C  0.36258307  0.32422507  0.10253244     0.25100
C128        C  0.33341093  0.35092027  0.12812507    -0.22900
C129        C  0.28076721  0.35702565  0.12159976     0.20000
F130        F  0.25127066  0.38195590  0.14592650    -0.12900
F131        F  0.20726912  0.34364019  0.08415589    -0.15200
F132        F  0.41346476  0.31820710  0.10715462    -0.15200
F133        F  0.36938592  0.27911418  0.04694832    -0.12900
C134        C  0.28527013  0.35751898  0.41911268     0.25100
C135        C  0.29159528  0.30595013  0.42830921    -0.23000
C136        C  0.31944789  0.27472539  0.40484263     0.20000
C137        C  0.34192641  0.29518026  0.37315048     0.25100
C138        C  0.33617876  0.34709606  0.36420563    -0.22900
C139        C  0.30707048  0.37780327  0.38730483     0.20000
F140        F  0.30094051  0.42795949  0.37975201    -0.12900
F141        F  0.25785819  0.38835607  0.44107590    -0.15200
F142        F  0.36866893  0.26397041  0.35109944    -0.15200
F143        F  0.32611012  0.22478162  0.41317950    -0.12900
C144        C  0.10432051  0.14323428  0.46726425     0.25100
C145        C  0.09683535  0.11331021  0.99899711    -0.23000
C146        C  0.12809542  0.12135821  0.02985420     0.20000
C147        C  0.16723351  0.15720487  0.02852088     0.25100
C148        C  0.17252115  0.19007353  0.99768872    -0.22900
C149        C  0.13940463  0.18300193  0.46733270     0.20000
F150        F  0.13930757  0.21538118  0.43799285    -0.12900
F151        F  0.07629268  0.13494842  0.43640142    -0.15200
F152        F  0.20068673  0.15828271  0.05712637    -0.15200
F153        F  0.12162819  0.09335271  0.06109329    -0.12900
C154        C  0.83097510  0.15261137  0.02859947     0.25100
C155        C  0.82966344  0.11233988  0.00381177    -0.23000
C156        C  0.78971901  0.11002056  0.47791604     0.20000
C157        C  0.75165479  0.14718161  0.47689912     0.25100
C158        C  0.75352470  0.18836784  0.00110091    -0.22900
C159        C  0.79385575  0.19067533  0.02689650     0.20000
F160        F  0.79822593  0.23042876  0.04997119    -0.12900
F161        F  0.86871882  0.15536051  0.05422310    -0.15200
F162        F  0.71238890  0.14211248  0.45273735    -0.15200
F163        F  0.78763338  0.07162409  0.45351006    -0.12900
C164        C  0.58425274  0.30107236  0.07439768     0.25100
C165        C  0.63604648  0.30588654  0.06603923    -0.23000
C166        C  0.66831787  0.33251593  0.08982738     0.20000
C167        C  0.64861129  0.35570876  0.12096292     0.25100
C168        C  0.59644447  0.35180786  0.12901858    -0.22900
C169        C  0.56474601  0.32325854  0.10590815     0.20000
F170        F  0.51451427  0.31798260  0.11321967    -0.12900
F171        F  0.55259770  0.27487101  0.05195560    -0.15200
F172        F  0.68076044  0.38115459  0.14345860    -0.15200
F173        F  0.71865518  0.33721213  0.08231279    -0.12900
C174        C  0.58411866  0.31075541  0.42351189     0.25100
C175        C  0.63706673  0.30655852  0.42938206    -0.23000
C176        C  0.67026572  0.32426755  0.40187678     0.20000
C177        C  0.65085643  0.34710240  0.36969597     0.25100
C178        C  0.59803094  0.35193266  0.36430053    -0.22900
C179        C  0.56483652  0.33303409  0.39121514     0.20000
F180        F  0.51361575  0.33765054  0.38679182    -0.12900
F181        F  0.55090485  0.29306320  0.44904307    -0.15200
F182        F  0.68366936  0.36365420  0.34352431    -0.15200
F183        F  0.72150215  0.32085653  0.40657347    -0.12900
C184        C  0.13258466  0.85082670  0.46387097     0.25100
C185        C  0.09323239  0.84882693  0.98972473    -0.23000
C186        C  0.09140003  0.80799526  0.01491351     0.20000
C187        C  0.12908902  0.77045541  0.01492206     0.25100
C188        C  0.17020310  0.77375809  0.99033071    -0.22900
C189        C  0.17120177  0.81423254  0.46455957     0.20000
F190        F  0.21039282  0.81943687  0.44072398    -0.12900
F191        F  0.13406676  0.88892554  0.43838395    -0.15200
F192        F  0.12484719  0.73049023  0.03865551    -0.15200
F193        F  0.05326435  0.80482093  0.03981514    -0.12900
C194        C  0.30398950  0.58305838  0.10003143     0.25100
C195        C  0.32903947  0.61265690  0.12642238    -0.23000
C196        C  0.33312768  0.66536357  0.12029023     0.20000
C197        C  0.31251704  0.68793781  0.08834833     0.25100
C198        C  0.28836263  0.65802928  0.06181972    -0.22900
C199        C  0.28399355  0.60553429  0.06807448     0.20000
F200        F  0.26042838  0.57584681  0.04297860    -0.12900
F201        F  0.30047959  0.53197981  0.10426557    -0.15200
F202        F  0.31756360  0.73868355  0.08277367    -0.15200
F203        F  0.35681215  0.69510023  0.14527294    -0.12900
C204        C  0.33104446  0.66399829  0.36668511     0.25100
C205        C  0.33123683  0.61095165  0.36300995    -0.23000
C206        C  0.30950390  0.58061870  0.39080477     0.20000
C207        C  0.28844216  0.60266607  0.42178431     0.25100
C208        C  0.28844926  0.65555268  0.42560772    -0.22900
C209        C  0.30928835  0.68617743  0.39761463     0.20000
F210        F  0.30980775  0.73741329  0.40072435    -0.12900
F211        F  0.35132841  0.69438130  0.34018732    -0.15200
F212        F  0.26792477  0.57222659  0.44818184    -0.15200
F213        F  0.31028731  0.52936135  0.38879779    -0.12900
C214        C  0.78808936  0.85452878  0.47274282     0.25100
C215        C  0.83060794  0.85018057  0.99631201    -0.23000
C216        C  0.83584637  0.80692906  0.01908202     0.20000
C217        C  0.79920031  0.76861369  0.01831334     0.25100
C218        C  0.75620563  0.77320519  0.99511054    -0.22900
C219        C  0.75098246  0.81662191  0.47237706     0.20000
F220        F  0.70942900  0.82281819  0.45029433    -0.12900
F221        F  0.78265905  0.89549233  0.44997655    -0.15200
F222        F  0.80639288  0.72643963  0.03961657    -0.15200
F223        F  0.87668746  0.80179531  0.04199212    -0.12900
C224        C  0.64146974  0.60254478  0.06982330     0.25100
C225        C  0.63842343  0.65467180  0.06155718    -0.23000
C226        C  0.61251044  0.68681388  0.08554082     0.20000
C227        C  0.58936756  0.66699547  0.11711462     0.25100
C228        C  0.59200434  0.61470045  0.12524109    -0.22900
C229        C  0.61866556  0.58274021  0.10145537     0.20000
F230        F  0.62146363  0.53202633  0.10822233    -0.12900
F231        F  0.66670223  0.57079562  0.04721030    -0.15200
F232        F  0.56529264  0.69916853  0.14001922    -0.15200
F233        F  0.60840226  0.73720065  0.07782600    -0.12900
C234        C  0.62345236  0.58191275  0.38704871     0.25100
C235        C  0.59837173  0.61419443  0.36162484    -0.23000
C236        C  0.59787643  0.66674532  0.36766521     0.20000
C237        C  0.62103481  0.68653659  0.39907079     0.25100
C238        C  0.64436946  0.65402116  0.42515052    -0.22900
C239        C  0.64589053  0.60163815  0.41869841     0.20000
F240        F  0.66874595  0.56952085  0.44330520    -0.12900
F241        F  0.62442515  0.53099619  0.38207334    -0.15200
F242        F  0.61891887  0.73726770  0.40473460    -0.15200
F243        F  0.57536708  0.69905898  0.34305692    -0.12900
C244        C  0.71709142  0.73274381  0.49449186     0.04700
C245        C  0.70025687  0.71278144  0.96090636    -0.11500
C246        C  0.66368747  0.67413588  0.96027259     0.02200
C247        C  0.64414159  0.65522156  0.99341442    -0.10000
C248        C  0.66025705  0.67489086  0.52705734     0.04700
C249        C  0.69652193  0.71382485  0.52750506    -0.09400
H250        H  0.71608715  0.72672737  0.93528399     0.10300
H251        H  0.61530814  0.62588490  0.99298856     0.07800
H252        H  0.70870947  0.72931142  0.55354327     0.07600
C253        C  0.21177169  0.73525110  0.49154828     0.04700
C254        C  0.23042024  0.71467812  0.95878879    -0.11500
C255        C  0.26920587  0.67806160  0.95975856     0.02200
C256        C  0.28879347  0.66119348  0.99367701    -0.10000
C257        C  0.27006934  0.68030931  0.52657598     0.04700
C258        C  0.23243131  0.71816508  0.52544757    -0.09400
H259        H  0.21391378  0.72600776  0.93253590     0.10300
H260        H  0.31855951  0.63260734  0.99452132     0.07800
H261        H  0.21872354  0.73353386  0.55097669     0.07600
C262        C  0.71342579  0.22841797  0.49976606     0.04700
C263        C  0.69292045  0.24687881  0.53253636    -0.11500
C264        C  0.65588364  0.28508643  0.53166466     0.02200
C265        C  0.63803781  0.30425124  0.99791227    -0.10000
C266        C  0.65717845  0.28587989  0.96481387     0.04700
C267        C  0.69541302  0.24842778  0.96591866    -0.09400
H268        H  0.70519126  0.23122868  0.55885816     0.10300
H269        H  0.60976427  0.33429049  0.99749892     0.07800
H270        H  0.71101067  0.23488968  0.94041854     0.07600
N271        N  0.96246992  0.90450165  0.49588393    -0.35100
N272        N  0.04120915  0.98182254  0.49608364    -0.55600
N273        N  0.96359415  0.05921380  0.50340905    -0.35100
N274        N  0.88472227  0.98169524  0.50022382    -0.55600
C275        C  0.00308186  0.87763147  0.48446560     0.28500
C276        C  0.92037840  0.87783886  0.48690323     0.28500
C277        C  0.00464230  0.08870444  0.49628473     0.28500
C278        C  0.92144090  0.08814896  0.49777950     0.28500
C279        C  0.07071714  0.93983288  0.49924563     0.37100
C280        C  0.07183529  0.02189448  0.50266176     0.37100
C281        C  0.85605480  0.94013038  0.50674098     0.37100
C282        C  0.85636788  0.02190158  0.51011999     0.37100
C283        C  0.98669176  0.83351881  0.46788428    -0.20400
C284        C  0.93438861  0.83370591  0.46934131    -0.20400
C285        C  0.98805824  0.13738299  0.48709459    -0.20400
C286        C  0.93582867  0.13667244  0.48721290    -0.20400
C287        C  0.12027915  0.95321986  0.50791253    -0.21400
C288        C  0.12125133  0.00507593  0.50930464    -0.21400
C289        C  0.80940210  0.95392095  0.52108971    -0.21400
C290        C  0.80954564  0.00584809  0.52313688    -0.21400
C291        C  0.05451713  0.89006810  0.49122607    -0.16800
C292        C  0.87011802  0.89052433  0.49687495    -0.16800
C293        C  0.87052973  0.07297165  0.50439074    -0.16800
C294        C  0.05649542  0.07344040  0.49979049    -0.16800
H295        H  0.01005388  0.80394062  0.45639095     0.16200
H296        H  0.90955571  0.80427374  0.45920757     0.16200
H297        H  0.01066806  0.17065098  0.48129913     0.16200
H298        H  0.91136549  0.16881752  0.48104221     0.16200
H299        H  0.15284461  0.92843431  0.51176946     0.14400
H300        H  0.15504702  0.02740079  0.51401334     0.14400
H301        H  0.77821529  0.92926851  0.52867616     0.14400
H302        H  0.77849667  0.02917840  0.53263559     0.14400
H303        H  0.96376160  0.93561799  0.51308149     0.27700
H304        H  0.96438994  0.02315697  0.51526448     0.27700
C305        C  0.21201075  0.23118778  0.49719935     0.04700
C306        C  0.23589033  0.24603115  0.96407164    -0.11500
C307        C  0.27097354  0.28602454  0.96332023     0.02200
C308        C  0.28621354  0.30814772  0.99623546    -0.10000
C309        C  0.26540386  0.29223171  0.52967600     0.04700
C310        C  0.22653991  0.25586046  0.52987398    -0.09400
H311        H  0.22730481  0.22707272  0.93863906     0.10300
H312        H  0.31507887  0.33747755  0.99589295     0.07800
H313        H  0.20867094  0.24645324  0.55573842     0.07600
C314        C  0.57727021  0.37636120  0.83074216     0.44000
N315        N  0.52689932  0.39410787  0.78585643     0.02900
C316        C  0.52140238  0.61090557  0.67653996    -0.05000
H317        H  0.50092710  0.64214082  0.81837528     0.08400
C318        C  0.33774129  0.53999282  0.81325828    -0.05300
Co319      Co  0.55762397  0.48795899  0.74501053     0.74600
N320        N  0.51678463  0.57753091  0.78460530    -0.24500
Co321      Co  0.45902275  0.57614376  0.74499867     0.74100
C322        C  0.35365754  0.58705614  0.83041214     0.44100
N323        N  0.37647326  0.42064610  0.78633655     0.02500
N324        N  0.40308431  0.57151005  0.78536484     0.02600
N325        N  0.58427458  0.55201347  0.67716310    -0.45400
H326        H  0.62671461  0.44674876  0.81907794     0.08400
N327        N  0.55407631  0.54383688  0.78477195     0.02900
N328        N  0.40158563  0.57229116  0.70524127     0.02600
C329        C  0.35119739  0.58852997  0.65988490     0.44200
N330        N  0.41405550  0.38739187  0.78609068    -0.24000
C331        C  0.59193859  0.42430324  0.67814873    -0.04900
N332        N  0.53514214  0.36078794  0.81280963    -0.45100
N333        N  0.39239791  0.60560453  0.67834999    -0.45300
C334        C  0.57480585  0.37750194  0.66109053     0.44000
N335        N  0.55214557  0.54449342  0.70452033     0.02900
N336        N  0.41264165  0.38872524  0.70625975    -0.24000
N337        N  0.56076602  0.43099028  0.78527733    -0.24500
N338        N  0.37480363  0.42171054  0.70602742     0.02500
H339        H  0.42923993  0.32349225  0.67370203     0.08400
H340        H  0.30303362  0.51740113  0.67236743     0.08400
N341        N  0.51491186  0.57821874  0.70468684    -0.24500
N342        N  0.37037991  0.53356937  0.78567736    -0.24200
N343        N  0.52547415  0.39478594  0.70576300     0.02900
C344        C  0.57231153  0.59288374  0.82930870     0.44300
C345        C  0.40730008  0.35354582  0.81344230    -0.05400
N346        N  0.36871069  0.53453109  0.70565000    -0.24100
H347        H  0.30558963  0.51585814  0.81935087     0.08400
N348        N  0.58799564  0.55148224  0.81121341    -0.45400
H349        H  0.43229070  0.32196843  0.81994198     0.08400
C350        C  0.35794222  0.37237796  0.66121318     0.44100
C351        C  0.59454580  0.42288087  0.81261210    -0.04900
Co352      Co  0.46984489  0.39028991  0.74600661     0.73800
N353        N  0.34361289  0.41151898  0.81302415    -0.45100
C354        C  0.56741184  0.59329469  0.65833551     0.44400
N355        N  0.53341013  0.36148272  0.67958735    -0.45100
Co356      Co  0.37143836  0.47761772  0.74594303     0.73900
C357        C  0.33536085  0.54143518  0.67800133    -0.05400
C358        C  0.52508431  0.61034534  0.81176680    -0.05000
N359        N  0.55901699  0.43190888  0.70546814    -0.24500
N360        N  0.39427199  0.60465260  0.81162028    -0.45300
H361        H  0.49658703  0.64244987  0.66956299     0.08400
C362        C  0.40535645  0.35595438  0.67903974    -0.05400
Cl363      Cl  0.46446784  0.48305849  0.74552603    -0.48400
C364        C  0.36049417  0.36962238  0.83126261     0.44100
H365        H  0.62367513  0.44857931  0.67127501     0.08400
N366        N  0.34105257  0.41324939  0.67953903    -0.45100
C367        C  0.25796332  0.33692042  0.59003985     0.25100
C368        C  0.28762531  0.31122362  0.56429092    -0.23000
C369        C  0.33997099  0.30470761  0.57102119     0.20000
C370        C  0.36258747  0.32423523  0.60253290     0.25100
C371        C  0.33341420  0.35092077  0.62813000    -0.22900
C372        C  0.28076819  0.35701623  0.62161012     0.20000
F373        F  0.25127054  0.38193457  0.64594256    -0.12900
F374        F  0.20726700  0.34362474  0.58417084    -0.15200
F375        F  0.41347164  0.31822885  0.60714969    -0.15200
F376        F  0.36938990  0.27913278  0.54694527    -0.12900
C377        C  0.28527294  0.35751604  0.91911076     0.25100
C378        C  0.29159486  0.30594568  0.92830430    -0.23000
C379        C  0.31944402  0.27472168  0.90483510     0.20000
C380        C  0.34192494  0.29517919  0.87314470     0.25100
C381        C  0.33618271  0.34709680  0.86420404    -0.22900
C382        C  0.30707597  0.37780304  0.88730473     0.20000
F383        F  0.30095132  0.42796093  0.87975551    -0.12900
F384        F  0.25786223  0.38835211  0.94107551    -0.15200
F385        F  0.36866462  0.26397028  0.85109121    -0.15200
F386        F  0.32610087  0.22477600  0.91316774    -0.12900
C387        C  0.10432174  0.14322569  0.96726482     0.25100
C388        C  0.09683445  0.11331545  0.49899497    -0.23000
C389        C  0.12809344  0.12136146  0.52985287     0.20000
C390        C  0.16723065  0.15720915  0.52852170     0.25100
C391        C  0.17251773  0.19008113  0.49769138    -0.22900
C392        C  0.13940788  0.18299169  0.96733046     0.20000
F393        F  0.13931195  0.21536709  0.93798837    -0.12900
F394        F  0.07629239  0.13493804  0.93640300    -0.15200
F395        F  0.20068384  0.15828456  0.55712725    -0.15200
F396        F  0.12162645  0.09335248  0.56109039    -0.12900
C397        C  0.83097273  0.15261393  0.52859226     0.25100
C398        C  0.82966165  0.11234310  0.50380403    -0.23000
C399        C  0.78972238  0.11001854  0.97792258     0.20000
C400        C  0.75166002  0.14718167  0.97690368     0.25100
C401        C  0.75351944  0.18836725  0.50109648    -0.22900
C402        C  0.79385166  0.19067621  0.52689091     0.20000
F403        F  0.79822087  0.23042911  0.54996614    -0.12900
F404        F  0.86871674  0.15536298  0.55421558    -0.15200
F405        F  0.71239612  0.14211387  0.95274010    -0.15200
F406        F  0.78763720  0.07162153  0.95351696    -0.12900
C407        C  0.58425717  0.30104493  0.57440865     0.25100
C408        C  0.63604445  0.30588164  0.56603778    -0.23000
C409        C  0.66831363  0.33253313  0.58981382     0.20000
C410        C  0.64861015  0.35572536  0.62095033     0.25100
C411        C  0.59644839  0.35180325  0.62901859    -0.22900
C412        C  0.56475357  0.32323063  0.60592027     0.20000
F413        F  0.51452827  0.31792845  0.61324526    -0.12900
F414        F  0.55260541  0.27482241  0.55197737    -0.15200
F415        F  0.68075835  0.38119198  0.64343403    -0.15200
F416        F  0.71864481  0.33725265  0.58228566    -0.12900
C417        C  0.58412973  0.31075925  0.92351238     0.25100
C418        C  0.63707777  0.30656213  0.92938284    -0.23000
C419        C  0.67027694  0.32426963  0.90187713     0.20000
C420        C  0.65086783  0.34710447  0.86969605     0.25100
C421        C  0.59804243  0.35193600  0.86430066    -0.22900
C422        C  0.56484793  0.33303782  0.89121540     0.20000
F423        F  0.51362725  0.33765364  0.88679166    -0.12900
F424        F  0.55091548  0.29306668  0.94904319    -0.15200
F425        F  0.68368073  0.36365491  0.84352396    -0.15200
F426        F  0.72151333  0.32085734  0.90657375    -0.12900
C427        C  0.13258372  0.85082605  0.96387183     0.25100
C428        C  0.09323453  0.84883127  0.48972498    -0.23000
C429        C  0.09140210  0.80800209  0.51491585     0.20000
C430        C  0.12908981  0.77046119  0.51492562     0.25100
C431        C  0.17020292  0.77376038  0.49033325    -0.22900
C432        C  0.17120146  0.81423258  0.96455903     0.20000
F433        F  0.21039339  0.81944062  0.94072471    -0.12900
F434        F  0.13406741  0.88892886  0.93838801    -0.15200
F435        F  0.12484685  0.73049785  0.53866067    -0.15200
F436        F  0.05326642  0.80483010  0.53981751    -0.12900
C437        C  0.30399497  0.58305745  0.60003275     0.25100
C438        C  0.32904203  0.61265803  0.62642389    -0.23000
C439        C  0.33312299  0.66536552  0.62029273     0.20000
C440        C  0.31250907  0.68793826  0.58835132     0.25100
C441        C  0.28835871  0.65802744  0.56182202    -0.22900
C442        C  0.28399578  0.60553179  0.56807636     0.20000
F443        F  0.26043293  0.57584197  0.54298081    -0.12900
F444        F  0.30049030  0.53197843  0.60426644    -0.15200
F445        F  0.31755021  0.73868472  0.58277730    -0.15200
F446        F  0.35680393  0.69510439  0.64527571    -0.12900
C447        C  0.33105583  0.66400327  0.86668389     0.25100
C448        C  0.33125237  0.61095640  0.86301056    -0.23000
C449        C  0.30952247  0.58062327  0.89080636     0.20000
C450        C  0.28845790  0.60267094  0.92178467     0.25100
C451        C  0.28846001  0.65555796  0.92560626    -0.22900
C452        C  0.30929718  0.68618275  0.89761241     0.20000
F453        F  0.30981254  0.73741888  0.90072053    -0.12900
F454        F  0.35133783  0.69438599  0.84018515    -0.15200
F455        F  0.26794394  0.57223109  0.94818335    -0.15200
F456        F  0.31031229  0.52936565  0.88880172    -0.12900
C457        C  0.78808620  0.85452734  0.97275217     0.25100
C458        C  0.83060873  0.85018388  0.49630497    -0.23000
C459        C  0.83584315  0.80693581  0.51907877     0.20000
C460        C  0.79919590  0.76862134  0.51831098     0.25100
C461        C  0.75620371  0.77321083  0.49510528    -0.22900
C462        C  0.75098078  0.81661885  0.97238534     0.20000
F463        F  0.70942549  0.82281545  0.95030446    -0.12900
F464        F  0.78265286  0.89549352  0.94998868    -0.15200
F465        F  0.80638492  0.72645025  0.53961800    -0.15200
F466        F  0.87668069  0.80180561  0.54199253    -0.12900
C467        C  0.64146414  0.60255100  0.56981718     0.25100
C468        C  0.63842401  0.65467964  0.56155547    -0.23000
C469        C  0.61252128  0.68682202  0.58554459     0.20000
C470        C  0.58938224  0.66700216  0.61711939     0.25100
C471        C  0.59201206  0.61470552  0.62524088    -0.22900
C472        C  0.61866331  0.58274497  0.60144992     0.20000
F473        F  0.62145390  0.53202962  0.60821223    -0.12900
F474        F  0.66668615  0.57080140  0.54719857    -0.15200
F475        F  0.56531736  0.69917482  0.64002967    -0.15200
F476        F  0.60841825  0.73721034  0.57783381    -0.12900
C477        C  0.62346979  0.58191187  0.88704387     0.25100
C478        C  0.59838365  0.61419455  0.86162345    -0.23000
C479        C  0.59788054  0.66674407  0.86766911     0.20000
C480        C  0.62103728  0.68653274  0.89907619     0.25100
C481        C  0.64437777  0.65401587  0.92515228    -0.22900
C482        C  0.64590562  0.60163443  0.91869539     0.20000
F483        F  0.66876527  0.56951579  0.94329921    -0.12900
F484        F  0.62445078  0.53099663  0.88206325    -0.15200
F485        F  0.61891296  0.73726219  0.90474560    -0.15200
F486        F  0.57536458  0.69905891  0.84306475    -0.12900
loop_ 
_geom_bond_atom_site_label_1 
_geom_bond_atom_site_label_2 
_geom_bond_distance 
_geom_bond_site_symmetry_2 
_ccdc_geom_bond_type 
C1            C6   1.406   1_556  A
C1          C245   1.407       .  A
C1          C218   1.484       .  S
C2            C3   1.403       .  A
C2          C244   1.407       .  A
C2            H7   1.084       .  S
C3            C4   1.400       .  A
C3          C238   1.478       .  S
C4          C248   1.400       .  A
C4            H8   1.084       .  S
C5            C6   1.403       .  A
C5          C247   1.400   1_554  A
C5          C225   1.477       .  S
C6            H9   1.084       .  S
C10          C15   1.410   1_556  A
C10         C254   1.408       .  A
C10         C188   1.489       .  S
C11          C12   1.402       .  A
C11         C253   1.408       .  A
C11          H16   1.083       .  S
C12          C13   1.399       .  A
C12         C208   1.478       .  S
C13         C257   1.399       .  A
C13          H17   1.084       .  S
C14          C15   1.403       .  A
C14         C256   1.399   1_554  A
C14         C198   1.478       .  S
C15          H18   1.083       .  S
C19          C20   1.406   1_556  A
C19         C267   1.410       .  A
C19         C158   1.489   1_556  S
C20          C21   1.398       .  A
C20          H25   1.083       .  S
C21         C265   1.398   1_554  A
C21         C165   1.472       .  S
C22          C23   1.402       .  A
C22         C264   1.398       .  A
C22          H26   1.084       .  S
C23          C24   1.406       .  A
C23         C175   1.485       .  S
C24         C262   1.410       .  A
C24          H27   1.083       .  S
N28          C33   1.352       .  A
N28          C32   1.351   1_655  A
N28          H60   1.040   1_556  S
N29          C36   1.353       .  A
N29          C37   1.353   1_566  A
N30          C35   1.355   1_554  A
N30          C34   1.356   1_654  A
N30          H61   1.038       .  S
N31          C38   1.351       .  A
N31          C39   1.349   1_565  A
C32          C40   1.387   1_455  A
C32          C48   1.411       .  A
C33          C49   1.413       .  A
C33          C41   1.387       .  A
C34          C42   1.390   1_455  A
C34          C51   1.423       .  A
C35          C50   1.418   1_556  A
C35          C43   1.385       .  A
C36          C48   1.415       .  A
C36          C44   1.385   1_556  A
C37          C51   1.419   1_554  A
C37          C45   1.388       .  A
C38          C46   1.386       .  A
C38          C49   1.411   1_554  A
C39          C47   1.386       .  A
C39          C50   1.411       .  A
C40          C41   1.375       .  A
C40          H52   1.082   1_655  S
C41          H53   1.082       .  S
C42          C43   1.372       .  A
C42          H54   1.080   1_655  S
C43          H55   1.082       .  S
C44          C45   1.370   1_565  A
C44          H56   1.082       .  S
C45          H57   1.080       .  S
C46          C47   1.373   1_565  A
C46          H58   1.082       .  S
C47          H59   1.082       .  S
C48         C185   1.489       .  S
C49         C215   1.489       .  S
C50         C155   1.491       .  S
C51         C145   1.495       .  S
C62          C67   1.414   1_556  A
C62         C306   1.414       .  A
C62         C148   1.503       .  S
C63          C64   1.403       .  A
C63         C305   1.414       .  A
C63          H68   1.081       .  S
C64          C65   1.396       .  A
C64         C135   1.478       .  S
C65         C309   1.397       .  A
C65          H69   1.085       .  S
C66          C67   1.403       .  A
C66         C308   1.397   1_554  A
C66         C125   1.479       .  S
C67          H70   1.081       .  S
C71         C108   1.459       .  S
C71         C178   1.472       .  S
C71          N89   1.348       .  A
N72          N89   1.323       .  A
N72          N94   1.320       .  A
N72        Co109   2.080       .  S
C73         C111   1.461       .  S
C73         H118   1.081       .  S
C73          N98   1.341       .  A
H74         C115   1.081       .  S
C75          C79   1.459       .  S
C75         H104   1.081       .  S
C75          N99   1.338       .  A
Co76         N94   2.084       .  S
Co76         N84   2.083       .  S
Co76        N116   2.079       .  S
Co76         N92   2.084       .  S
Co76       Cl120   2.451       .  S
N77         C115   1.341       .  A
N77          N84   1.321       .  A
N77         Co78   2.084       .  S
Co78         N81   2.089       .  S
Co78         N98   2.084       .  S
Co78         N85   2.085       .  S
Co78       Cl120   2.459       .  S
C79         C205   1.478       .  S
C79         N117   1.351       .  A
N80          N87   1.319       .  A
N80         N110   1.324       .  A
N80        Co113   2.089       .  S
N81          N99   1.321       .  A
N81         N117   1.326       .  A
N82         C111   1.349       .  A
N82          N92   1.323       .  A
H83         C108   1.081       .  S
N84         N105   1.324       .  A
N85         N103   1.320       .  A
N85          N90   1.325       .  A
C86         C114   1.460       .  S
C86         C195   1.479       .  S
C86          N90   1.351       .  A
N87         C102   1.340       .  A
N87        Co109   2.077       .  S
C88          C91   1.461       .  S
C88         H122   1.081       .  S
C88         N116   1.340       .  A
C91         C168   1.476       .  S
C91         N112   1.349       .  A
N92          N98   1.320       .  A
N93         C119   1.337       .  A
N93          N95   1.319       .  A
N93        Co109   2.077       .  S
N94         C108   1.341       .  A
N95         N123   1.326       .  A
N95        Co113   2.088       .  S
H96         C119   1.081       .  S
H97         C114   1.081       .  S
N99        Co113   2.082       .  S
N100        N112   1.323       .  A
N100        N116   1.319       .  A
N100       Co109   2.080       .  S
C101        C115   1.460       .  S
C101        C235   1.475       .  S
C101        N105   1.349       .  A
C102        C121   1.460       .  S
C102        H106   1.081       .  S
N103        C114   1.338       .  A
N103       Co113   2.083       .  S
C107        C119   1.461       .  S
C107        C128   1.481       .  S
C107        N123   1.352       .  A
Co109      Cl120   2.450       .  S
N110        C121   1.352       .  A
C111        C228   1.477       .  S
Co113      Cl120   2.448       .  S
C121        C138   1.480       .  S
C124        C125   1.405       .  A
C124        C129   1.403       .  A
C124        F131   1.357       .  S
C125        C126   1.404       .  A
C126        C127   1.393       .  A
C126        F133   1.359       .  S
C127        C128   1.407       .  A
C127        F132   1.354       .  S
C128        C129   1.409       .  A
C129        F130   1.357       .  S
C134        C135   1.405       .  A
C134        C139   1.396       .  A
C134        F141   1.358       .  S
C135        C136   1.404       .  A
C136        C137   1.401       .  A
C136        F143   1.358       .  S
C137        C138   1.410       .  A
C137        F142   1.357       .  S
C138        C139   1.405       .  A
C139        F140   1.356       .  S
C144        C149   1.398       .  A
C144        C388   1.404       .  A
C144        F151   1.358       .  S
C145        C146   1.404   1_556  A
C145        C387   1.404       .  A
C146        C147   1.399       .  A
C146        F153   1.358       .  S
C147        C148   1.415   1_554  A
C147        F152   1.357       .  S
C148        C392   1.415       .  A
C149        C391   1.415       .  A
C149        F150   1.357       .  S
C154        C155   1.404       .  A
C154        C159   1.398       .  A
C154        F161   1.358       .  S
C155        C399   1.406   1_554  A
C156        C157   1.398       .  A
C156        C398   1.406       .  A
C156        F163   1.358       .  S
C157        C401   1.409       .  A
C157        F162   1.358       .  S
C158        C159   1.411       .  A
C158        C400   1.409   1_554  A
C159        F160   1.358       .  S
C164        C165   1.402       .  A
C164        C169   1.396       .  A
C164        F171   1.358       .  S
C165        C166   1.404       .  A
C166        C167   1.398       .  A
C166        F173   1.358       .  S
C167        C168   1.407       .  A
C167        F172   1.357       .  S
C168        C169   1.407       .  A
C169        F170   1.355       .  S
C174        C175   1.409       .  A
C174        C179   1.396       .  A
C174        F181   1.358       .  S
C175        C176   1.408       .  A
C176        C177   1.400       .  A
C176        F183   1.358       .  S
C177        C178   1.405       .  A
C177        F182   1.358       .  S
C178        C179   1.403       .  A
C179        F180   1.358       .  S
C184        C189   1.398       .  A
C184        C428   1.404       .  A
C184        F191   1.358       .  S
C185        C186   1.405   1_556  A
C185        C427   1.404       .  A
C186        C187   1.398       .  A
C186        F193   1.358       .  S
C187        C188   1.410   1_554  A
C187        F192   1.358       .  S
C188        C432   1.411       .  A
C189        C431   1.411       .  A
C189        F190   1.357       .  S
C194        C195   1.407       .  A
C194        C199   1.395       .  A
C194        F201   1.357       .  S
C195        C196   1.409       .  A
C196        C197   1.402       .  A
C196        F203   1.358       .  S
C197        C198   1.404       .  A
C197        F202   1.358       .  S
C198        C199   1.405       .  A
C199        F200   1.358       .  S
C204        C205   1.408       .  A
C204        C209   1.402       .  A
C204        F211   1.358       .  S
C205        C206   1.406       .  A
C206        C207   1.394       .  A
C206        F213   1.355       .  S
C207        C208   1.404       .  A
C207        F212   1.358       .  S
C208        C209   1.406       .  A
C209        F210   1.358       .  S
C214        C219   1.398       .  A
C214        C458   1.405       .  A
C214        F221   1.358       .  S
C215        C216   1.405   1_556  A
C215        C457   1.405       .  A
C216        C217   1.398       .  A
C216        F223   1.358       .  S
C217        C218   1.408   1_554  A
C217        F222   1.358       .  S
C218        C462   1.408       .  A
C219        C461   1.408       .  A
C219        F220   1.358       .  S
C224        C225   1.405       .  A
C224        C229   1.397       .  A
C224        F231   1.358       .  S
C225        C226   1.405       .  A
C226        C227   1.399       .  A
C226        F233   1.358       .  S
C227        C228   1.408       .  A
C227        F232   1.357       .  S
C228        C229   1.407       .  A
C229        F230   1.358       .  S
C234        C235   1.406       .  A
C234        C239   1.397       .  A
C234        F241   1.358       .  S
C235        C236   1.407       .  A
C236        C237   1.399       .  A
C236        F243   1.357       .  S
C237        C238   1.405       .  A
C237        F242   1.358       .  S
C238        C239   1.405       .  A
C239        F240   1.358       .  S
C244        C249   1.406       .  A
C244        C461   1.484       .  S
C245        C246   1.403       .  A
C245        H250   1.084       .  S
C246        C247   1.400       .  A
C246        C481   1.478       .  S
C247        H251   1.084       .  S
C248        C249   1.403       .  A
C248        C468   1.477       .  S
C249        H252   1.084       .  S
C253        C258   1.410       .  A
C253        C431   1.489       .  S
C254        C255   1.402       .  A
C254        H259   1.083       .  S
C255        C256   1.399       .  A
C255        C451   1.478       .  S
C256        H260   1.084       .  S
C257        C258   1.403       .  A
C257        C441   1.478       .  S
C258        H261   1.083       .  S
C262        C263   1.406       .  A
C262        C401   1.489       .  S
C263        C264   1.398       .  A
C263        H268   1.083       .  S
C264        C408   1.472       .  S
C265        C266   1.402       .  A
C265        H269   1.084       .  S
C266        C267   1.406       .  A
C266        C418   1.485       .  S
C267        H270   1.083       .  S
N271        C276   1.352       .  A
N271        C275   1.351   1_655  A
N271        H303   1.040       .  S
N272        C279   1.353       .  A
N272        C280   1.353   1_565  A
N273        C278   1.355       .  A
N273        C277   1.356   1_655  A
N273        H304   1.038       .  S
N274        C281   1.351       .  A
N274        C282   1.349   1_565  A
C275        C283   1.387   1_455  A
C275        C291   1.411       .  A
C276        C292   1.413       .  A
C276        C284   1.387       .  A
C277        C285   1.390   1_455  A
C277        C294   1.423       .  A
C278        C293   1.418       .  A
C278        C286   1.385       .  A
C279        C291   1.415       .  A
C279        C287   1.385       .  A
C280        C294   1.419       .  A
C280        C288   1.388       .  A
C281        C289   1.386       .  A
C281        C292   1.411       .  A
C282        C290   1.386       .  A
C282        C293   1.411       .  A
C283        C284   1.375       .  A
C283        H295   1.082   1_655  S
C284        H296   1.082       .  S
C285        C286   1.372       .  A
C285        H297   1.080   1_655  S
C286        H298   1.082       .  S
C287        C288   1.370   1_565  A
C287        H299   1.082       .  S
C288        H300   1.080       .  S
C289        C290   1.373   1_565  A
C289        H301   1.082       .  S
C290        H302   1.082       .  S
C291        C428   1.489       .  S
C292        C458   1.489       .  S
C293        C398   1.491       .  S
C294        C388   1.495       .  S
C305        C310   1.414       .  A
C305        C391   1.503       .  S
C306        C307   1.403       .  A
C306        H311   1.081       .  S
C307        C308   1.396       .  A
C307        C378   1.478       .  S
C308        H312   1.085       .  S
C309        C310   1.403       .  A
C309        C368   1.479       .  S
C310        H313   1.081       .  S
C314        C351   1.459       .  S
C314        C421   1.472       .  S
C314        N332   1.348       .  A
N315        N332   1.323       .  A
N315        N337   1.320       .  A
N315       Co352   2.080       .  S
C316        C354   1.461       .  S
C316        H361   1.081       .  S
C316        N341   1.341       .  A
H317        C358   1.081       .  S
C318        C322   1.459       .  S
C318        H347   1.081       .  S
C318        N342   1.338       .  A
Co319       N337   2.084       .  S
Co319       N327   2.083       .  S
Co319       N359   2.079       .  S
Co319       N335   2.084       .  S
Co319      Cl363   2.451       .  S
N320        C358   1.341       .  A
N320        N327   1.321       .  A
N320       Co321   2.084       .  S
Co321       N324   2.089       .  S
Co321       N341   2.084       .  S
Co321       N328   2.085       .  S
Co321      Cl363   2.459       .  S
C322        C448   1.478       .  S
C322        N360   1.351       .  A
N323        N330   1.319       .  A
N323        N353   1.324       .  A
N323       Co356   2.089       .  S
N324        N342   1.321       .  A
N324        N360   1.326       .  A
N325        C354   1.349       .  A
N325        N335   1.323       .  A
H326        C351   1.081       .  S
N327        N348   1.324       .  A
N328        N346   1.320       .  A
N328        N333   1.325       .  A
C329        C357   1.460       .  S
C329        C438   1.479       .  S
C329        N333   1.351       .  A
N330        C345   1.340       .  A
N330       Co352   2.077       .  S
C331        C334   1.461       .  S
C331        H365   1.081       .  S
C331        N359   1.340       .  A
C334        C411   1.476       .  S
C334        N355   1.349       .  A
N335        N341   1.320       .  A
N336        C362   1.337       .  A
N336        N338   1.319       .  A
N336       Co352   2.077       .  S
N337        C351   1.342       .  A
N338        N366   1.326       .  A
N338       Co356   2.088       .  S
H339        C362   1.081       .  S
H340        C357   1.081       .  S
N342       Co356   2.082       .  S
N343        N355   1.323       .  A
N343        N359   1.319       .  A
N343       Co352   2.080       .  S
C344        C358   1.460       .  S
C344        C478   1.475       .  S
C344        N348   1.349       .  A
C345        C364   1.460       .  S
C345        H349   1.081       .  S
N346        C357   1.338       .  A
N346       Co356   2.083       .  S
C350        C362   1.461       .  S
C350        C371   1.481       .  S
C350        N366   1.352       .  A
Co352      Cl363   2.450       .  S
N353        C364   1.352       .  A
C354        C471   1.477       .  S
Co356      Cl363   2.448       .  S
C364        C381   1.480       .  S
C367        C368   1.405       .  A
C367        C372   1.403       .  A
C367        F374   1.357       .  S
C368        C369   1.404       .  A
C369        C370   1.393       .  A
C369        F376   1.359       .  S
C370        C371   1.407       .  A
C370        F375   1.354       .  S
C371        C372   1.409       .  A
C372        F373   1.357       .  S
C377        C378   1.405       .  A
C377        C382   1.396       .  A
C377        F384   1.358       .  S
C378        C379   1.404       .  A
C379        C380   1.401       .  A
C379        F386   1.358       .  S
C380        C381   1.410       .  A
C380        F385   1.357       .  S
C381        C382   1.405       .  A
C382        F383   1.356       .  S
C387        C392   1.398       .  A
C387        F394   1.358       .  S
C388        C389   1.404       .  A
C389        C390   1.399       .  A
C389        F396   1.358       .  S
C390        C391   1.415       .  A
C390        F395   1.357       .  S
C392        F393   1.357       .  S
C397        C398   1.404       .  A
C397        C402   1.398       .  A
C397        F404   1.358       .  S
C399        C400   1.398       .  A
C399        F406   1.358       .  S
C400        F405   1.358       .  S
C401        C402   1.411       .  A
C402        F403   1.358       .  S
C407        C408   1.402       .  A
C407        C412   1.396       .  A
C407        F414   1.358       .  S
C408        C409   1.404       .  A
C409        C410   1.398       .  A
C409        F416   1.358       .  S
C410        C411   1.407       .  A
C410        F415   1.357       .  S
C411        C412   1.407       .  A
C412        F413   1.355       .  S
C417        C418   1.409       .  A
C417        C422   1.396       .  A
C417        F424   1.358       .  S
C418        C419   1.408       .  A
C419        C420   1.400       .  A
C419        F426   1.358       .  S
C420        C421   1.405       .  A
C420        F425   1.358       .  S
C421        C422   1.403       .  A
C422        F423   1.358       .  S
C427        C432   1.398       .  A
C427        F434   1.358       .  S
C428        C429   1.405       .  A
C429        C430   1.398       .  A
C429        F436   1.358       .  S
C430        C431   1.410       .  A
C430        F435   1.358       .  S
C432        F433   1.357       .  S
C437        C438   1.407       .  A
C437        C442   1.395       .  A
C437        F444   1.357       .  S
C438        C439   1.409       .  A
C439        C440   1.402       .  A
C439        F446   1.358       .  S
C440        C441   1.404       .  A
C440        F445   1.358       .  S
C441        C442   1.405       .  A
C442        F443   1.358       .  S
C447        C448   1.408       .  A
C447        C452   1.402       .  A
C447        F454   1.358       .  S
C448        C449   1.406       .  A
C449        C450   1.394       .  A
C449        F456   1.355       .  S
C450        C451   1.404       .  A
C450        F455   1.358       .  S
C451        C452   1.406       .  A
C452        F453   1.358       .  S
C457        C462   1.398       .  A
C457        F464   1.358       .  S
C458        C459   1.405       .  A
C459        C460   1.398       .  A
C459        F466   1.358       .  S
C460        C461   1.408       .  A
C460        F465   1.358       .  S
C462        F463   1.358       .  S
C467        C468   1.405       .  A
C467        C472   1.397       .  A
C467        F474   1.358       .  S
C468        C469   1.405       .  A
C469        C470   1.399       .  A
C469        F476   1.358       .  S
C470        C471   1.408       .  A
C470        F475   1.357       .  S
C471        C472   1.407       .  A
C472        F473   1.358       .  S
C477        C478   1.406       .  A
C477        C482   1.397       .  A
C477        F484   1.358       .  S
C478        C479   1.407       .  A
C479        C480   1.399       .  A
C479        F486   1.357       .  S
C480        C481   1.405       .  A
C480        F485   1.358       .  S
C481        C482   1.405       .  A
C482        F483   1.358       .  S
