geometry optimzed in LAMMPS
_audit_creation_date              2020-11-30 
_audit_creation_method            'lammps2cif' 
_symmetry_space_group_name_H-M    'P1' 
_symmetry_Int_Tables_number       1 
_symmetry_cell_setting            triclinic 
loop_ 
_symmetry_equiv_pos_as_xyz 
  x,y,z 
_cell_length_a                    26.2093411 
_cell_length_b                    26.12803232277025 
_cell_length_c                    44.49903605947632 
_cell_angle_alpha                 89.94968040134187 
_cell_angle_beta                  90.54828859322629 
_cell_angle_gamma                 120.00999766238424 
loop_ 
_atom_site_label 
_atom_site_type_symbol 
_atom_site_fract_x 
_atom_site_fract_y 
_atom_site_fract_z 
_atom_site_charge 
O1          O  0.06328594  0.28007581  0.32747417    -0.86700
C2          C  0.19080911  0.34587126  0.26263270     0.89400
Mg3        Mg  0.05775091  0.33164404  0.36421136     1.58100
O4          O  0.20257028  0.25163283  0.31555186    -0.86400
O5          O  0.06343932  0.19786244  0.31820772    -0.73700
C6          C  0.32773383  0.46165262  0.42289105     0.94400
O7          O  0.13419747  0.41238671  0.30293696    -0.73500
O8          O  0.28423210  0.47072129  0.42211915    -0.81100
Mg9        Mg  0.07580361  0.31873146  0.28346396     1.58000
C10         C  0.36964647  0.31497358  0.35544400     0.94300
O11         O  0.01467125  0.23224511  0.25922049    -0.79300
H12         H  0.16948468  0.17307076  0.33561933    -0.04700
C13         C  0.30018540  0.43043123  0.33546428     0.89300
O14         O  0.09884426  0.29390066  0.39686999    -0.73800
O15         O  0.14960844  0.30657759  0.27675000    -0.86600
O16         O  0.34452674  0.30080239  0.32979777    -0.79400
C17         C  0.25464621  0.23804372  0.24462013     0.94400
C18         C  0.01579447  0.19145814  0.24413748     0.94300
Mg19       Mg  0.26840855  0.33714436  0.38278626     1.58000
O20         O  0.32961531  0.42376499  0.40583213    -0.79300
O21         O  0.21168976  0.24309934  0.36397720    -0.73600
O22         O  0.19988939  0.22230140  0.24557585    -0.79400
O23         O  0.99614884  0.32810230  0.28910966    -0.81100
O24         O  0.14335322  0.42586249  0.42324420    -0.79400
C25         C  0.19416766  0.22063434  0.33800537     0.88700
O26         O  0.19335673  0.34719118  0.38953745    -0.86600
O27         O  0.27943447  0.37671857  0.33904067    -0.86700
O28         O  0.28052715  0.45906688  0.34966914    -0.73700
Mg29       Mg  0.13346997  0.21731517  0.28205895     1.58000
O30         O  0.29158673  0.27262685  0.26416790    -0.81100
H31         H  0.00782772  0.20395699  0.34756181    -0.04800
O32         O  0.14211551  0.40487619  0.35166458    -0.86400
H33         H  0.17800379  0.48293386  0.33086476    -0.04700
H34         H  0.15965961  0.28352859  0.42053309    -0.04800
C35         C  0.15198970  0.43536868  0.32884320     0.88700
C36         C  0.04304944  0.22661744  0.33165327     0.89300
C37         C  0.15145146  0.30769143  0.40324250     0.89300
H38         H  0.33535202  0.45346190  0.31957022    -0.04800
O39         O  0.24372164  0.36179898  0.26936680    -0.73800
Mg40       Mg  0.21002226  0.43657020  0.38597403     1.58000
H41         H  0.18165201  0.36848983  0.24487136    -0.04800
C42         C  0.97771448  0.34644661  0.31038172     0.94300
O43         O  0.05317359  0.38644402  0.40286709    -0.81100
C44         C  0.09000609  0.41474076  0.42388938     0.94400
O45         O  0.05823196  0.18093024  0.24667949    -0.81100
Mg46       Mg  0.28617458  0.32646852  0.30231376     1.58200
O47         O  0.00296332  0.36086738  0.33601577    -0.79400
O48         O  0.34955372  0.33060726  0.37708317    -0.81100
C49         C  0.33568440  0.14283328  0.19139049     0.04000
C50         C  0.35433748  0.20347617  0.19541285     0.03900
C51         C  0.39695130  0.24556704  0.17632616    -0.16600
C52         C  0.41939840  0.22900443  0.15205333     0.04000
C53         C  0.39946646  0.16832157  0.14710747     0.03900
C54         C  0.35773398  0.12611773  0.16681260    -0.16600
H55         H  0.34453332  0.07997244  0.16370989     0.06000
H56         H  0.41103308  0.29191976  0.17968881     0.06000
C57         C  0.84875608  0.10081642  0.18149870     0.04000
C58         C  0.89369015  0.16022743  0.18591886     0.03900
C59         C  0.90042012  0.20321725  0.16469579    -0.16600
C60         C  0.86385437  0.18859134  0.13902105     0.04000
C61         C  0.81739947  0.12952091  0.13541054     0.03900
C62         C  0.81115501  0.08644775  0.15632137    -0.16600
H63         H  0.77581139  0.04122365  0.15319991     0.06000
H64         H  0.93621914  0.24821065  0.16770119     0.06000
O65         O  0.27992508  0.90526846  0.33629562    -0.86700
C66         C  0.15107632  0.83836616  0.39925212     0.89400
Mg67       Mg  0.27981286  0.95589786  0.29793243     1.58100
O68         O  0.15531083  0.73575101  0.34968236    -0.86400
O69         O  0.29109341  0.83022853  0.34835684    -0.73700
C70         C  0.01085948  0.79279763  0.23931509     0.94400
O71         O  0.19813539  0.95682115  0.35717096    -0.73500
O72         O  0.05090476  0.84722700  0.23960033    -0.81100
Mg73       Mg  0.26344346  0.93285409  0.37892492     1.58000
C74         C  0.99755165  0.61212550  0.30980957     0.94300
O75         O  0.33049152  0.91794888  0.40466180    -0.79300
H76         H  0.19864390  0.69928043  0.33091830    -0.04700
C77         C  0.04168744  0.79536680  0.32543060     0.89300
O78         O  0.24662864  0.87523190  0.26693816    -0.73800
O79         O  0.19564531  0.84447660  0.38681322    -0.86600
O80         O  0.02387550  0.62940877  0.33496373    -0.79400
C81         C  0.10383864  0.67451509  0.42231680     0.94400
C82         C  0.33412593  0.87942407  0.42062720     0.94300
Mg83       Mg  0.08306041  0.73932147  0.27998999     1.58000
O84         O  0.01531828  0.75450947  0.25508475    -0.79300
O85         O  0.14898284  0.71558829  0.30141533    -0.73600
O86         O  0.15637548  0.71854528  0.42171062    -0.79400
O87         O  0.33652478  0.02584982  0.37189025    -0.81100
O88         O  0.19089247  0.95539221  0.23670745    -0.79400
C89         C  0.16842834  0.71570518  0.32774616     0.88700
O90         O  0.15105147  0.82779369  0.27166094    -0.86600
O91         O  0.06775793  0.76720735  0.32270286    -0.86700
O92         O  0.05697303  0.84257145  0.31078836    -0.73700
Mg93       Mg  0.22129487  0.77793192  0.38423723     1.58000
O94         O  0.06732000  0.66333208  0.40088572    -0.81100
H95         H  0.34292465  0.89326829  0.31842939    -0.04800
O96         O  0.19240652  0.93694447  0.30891812    -0.86400
H97         H  0.14926535  0.97378390  0.32747838    -0.04700
H98         H  0.19173061  0.80165179  0.24291172    -0.04800
C99         C  0.17921858  0.95707645  0.33077617     0.88700
C100        C  0.30646369  0.87752543  0.33379570     0.89300
C101        C  0.19581055  0.83372645  0.25950387     0.89300
H102        H  0.00567314  0.78004213  0.34105691    -0.04800
O103        O  0.10024515  0.79669073  0.39200781    -0.73800
Mg104      Mg  0.12591286  0.89480763  0.27448786     1.58000
H105        H  0.15531855  0.87037706  0.41592459    -0.04800
C106        C  0.34995201  0.05993170  0.34949080     0.94300
O107        O  0.27988362  0.00893683  0.25797420    -0.81100
C108        C  0.24368458  0.99929848  0.23654720     0.94400
O109        O  0.29463050  0.82492709  0.41964264    -0.81100
Mg110      Mg  0.06778931  0.71631319  0.36089922     1.58200
O111        O  0.32508095  0.04288158  0.32396617    -0.79400
O112        O  0.00965548  0.64613429  0.28744010    -0.81100
O113        O  0.63400533  0.72377927  0.33919072    -0.86700
C114        C  0.69000190  0.84653713  0.40643539     0.89400
Mg115      Mg  0.68660255  0.72805131  0.30124013     1.58100
O116        O  0.58462542  0.84479711  0.35634752    -0.86400
O117        O  0.54684104  0.70962189  0.35078320    -0.73700
C118        C  0.78823932  0.00061297  0.25005859     0.94400
O119        O  0.76530419  0.80683712  0.36344801    -0.73500
O120        O  0.80119524  0.95967648  0.24852207    -0.81100
Mg121      Mg  0.67561949  0.73729678  0.38253898     1.58000
C122        C  0.61883122  0.00620712  0.32032923     0.94300
O123        O  0.59157660  0.66481842  0.40415579    -0.79300
H124        H  0.50597583  0.80191526  0.33579115    -0.04700
C125        C  0.75878927  0.96351151  0.33585924     0.89300
O126        O  0.63881512  0.76229366  0.27106136    -0.73800
O127        O  0.65280453  0.80283017  0.39238937    -0.86600
O128        O  0.61022449  0.97957848  0.34527037    -0.79400
C129        C  0.56959862  0.88800666  0.42992114     0.94400
C130        C  0.54907046  0.65837945  0.42035615     0.94300
Mg131      Mg  0.66310881  0.92408161  0.28910266     1.58000
O132        O  0.74740758  0.99650088  0.26691079    -0.79300
O133        O  0.57298482  0.85502484  0.30816778    -0.73600
O134        O  0.56282407  0.83607351  0.42829929    -0.79400
O135        O  0.69978214  0.66772603  0.37408115    -0.81100
O136        O  0.77209803  0.82293033  0.24291568    -0.79400
C137        C  0.55256146  0.83306220  0.33380595     0.88700
O138        O  0.68445285  0.85734379  0.27931651    -0.86600
O139        O  0.70465102  0.93679216  0.33243539    -0.86700
O140        O  0.79148695  0.95043144  0.32057015    -0.73700
Mg141      Mg  0.56080046  0.77531233  0.38899714     1.58000
O142        O  0.59585249  0.92661958  0.40969820    -0.81100
H143        H  0.56022779  0.66186379  0.31903838    -0.04800
O144        O  0.75327483  0.81543972  0.31509594    -0.86400
H145        H  0.83196047  0.85942467  0.33554284    -0.04700
H146        H  0.61909808  0.81838353  0.24905638    -0.04800
C147        C  0.78547066  0.82800592  0.33765270     0.88700
C148        C  0.57988049  0.69673782  0.33568394     0.89300
C149        C  0.64688057  0.81341131  0.26553169     0.89300
H150        H  0.77874893  0.99832154  0.35252413    -0.04800
O151        O  0.69853626  0.89775795  0.40079662    -0.73800
Mg152      Mg  0.77623113  0.88418893  0.28234291     1.58000
H153        H  0.71720332  0.84129153  0.42316818    -0.04800
C154        C  0.72237155  0.65696059  0.35169299     0.94300
O155        O  0.74116445  0.73261302  0.26123215    -0.81100
C156        C  0.76543993  0.77113988  0.24074066     0.94400
O157        O  0.53502710  0.69850435  0.42254303    -0.81100
Mg158      Mg  0.65147230  0.93218365  0.37030259     1.58200
O159        O  0.72883002  0.68209212  0.32645664    -0.79400
O160        O  0.64109602  0.99495627  0.29797670    -0.81100
C161        C  0.82681596  0.69674284  0.18912436     0.04000
C162        C  0.87739978  0.69050423  0.18987409     0.03900
C163        C  0.88674774  0.65982443  0.16667518    -0.16600
C164        C  0.84822441  0.63729966  0.14193725     0.04000
C165        C  0.79860228  0.64481684  0.14065413     0.03900
C166        C  0.78790673  0.67374472  0.16434028    -0.16600
H167        H  0.74858947  0.67755872  0.16359256     0.06000
H168        H  0.92549373  0.65496051  0.16744708     0.06000
O169        O  0.44727666  0.05616555  0.00383401    -0.86700
C170        C  0.50691185  0.98295171  0.06733702     0.89400
Mg171      Mg  0.38911686  0.00867022  0.96625822     1.58100
O172        O  0.61355442  0.07914219  0.01580767    -0.86400
O173        O  0.53092267  0.13614801  0.01471084    -0.73700
C174        C  0.52211858  0.87782221  0.90411323     0.94400
O175        O  0.38346712  0.92138396  0.02554392    -0.73500
O176        O  0.47213251  0.87483443  0.90355695    -0.81100
Mg177      Mg  0.42032211  0.01349891  0.04701163     1.58000
C178        C  0.71243064  0.01402594  0.97419691     0.94300
O179        O  0.44721522  0.09788154  0.07327384    -0.79300
H180        H  0.65970519  0.15833960  0.99647546    -0.04700
C181        C  0.52656817  0.90153126  0.99268888     0.89300
O182        O  0.46750007  0.04679598  0.93389210    -0.73800
O183        O  0.50548130  0.02302278  0.05345693    -0.86600
O184        O  0.70289850  0.02825168  0.99995966    -0.79400
C185        C  0.67777054  0.08453176  0.08736360     0.94400
C186        C  0.48942681  0.13666476  0.08919899     0.94300
Mg187      Mg  0.58960736  0.99563739  0.94721671     1.58000
O188        O  0.56005044  0.90657570  0.92450205    -0.79300
O189        O  0.62986718  0.08935065  0.96729114    -0.73600
O190        O  0.63827004  0.09976226  0.08694202    -0.79400
O191        O  0.33162247  0.00629654  0.04196064    -0.81100
O192        O  0.37631928  0.91808829  0.90475429    -0.79400
C193        C  0.63588227  0.11086765  0.99358357     0.88700
O194        O  0.50627757  0.99084431  0.94040538    -0.86600
O195        O  0.56103081  0.95526569  0.99047352    -0.86700
O196        O  0.47905378  0.87557680  0.97723860    -0.73700
Mg197      Mg  0.57972808  0.11161953  0.05032587     1.58000
O198        O  0.68168164  0.05328302  0.06653929    -0.81100
H199        H  0.47029973  0.13447131  0.98534616    -0.04800
O200        O  0.39722251  0.93240168  0.97688737    -0.86400
H201        H  0.35491747  0.85287706  0.99617246    -0.04700
H202        H  0.53800677  0.05658617  0.91050355    -0.04800
C203        C  0.37705404  0.90029438  0.99914784     0.88700
C204        C  0.48176256  0.10969889  0.00074893     0.89300
C205        C  0.50537532  0.03203957  0.92737049     0.89300
H206        H  0.53697652  0.87600614  0.00812471    -0.04800
O207        O  0.54352129  0.96672524  0.06066705    -0.73800
Mg208      Mg  0.43225887  0.90315994  0.94146649     1.58000
H209        H  0.47533031  0.96021128  0.08490463    -0.04800
C210        C  0.29513874  0.99125808  0.02033646     0.94300
O211        O  0.32784945  0.95719181  0.92724539    -0.81100
C212        C  0.33404023  0.92919031  0.90549106     0.94400
O213        O  0.54198174  0.14630035  0.08668638    -0.81100
Mg214      Mg  0.62026402  0.00233934  0.02770683     1.58200
O215        O  0.30621426  0.98036224  0.99412815    -0.79400
O216        O  0.67571375  0.99863997  0.95274228    -0.81100
O217        O  0.56869140  0.60237249  0.99221407    -0.86700
C218        C  0.49656167  0.47270349  0.92889785     0.89400
Mg219      Mg  0.62046865  0.60066597  0.02941142     1.58100
O220        O  0.39708907  0.47542989  0.98058865    -0.86400
O221        O  0.49143614  0.61164461  0.98335085    -0.73700
C222        C  0.46010944  0.32907758  0.08444144     0.94400
O223        O  0.61837889  0.52016226  0.96848687    -0.73500
O224        O  0.51371993  0.37068268  0.08529154    -0.81100
Mg225      Mg  0.59274252  0.58583399  0.94873873     1.58000
C226        C  0.27466468  0.31761514  0.01958596     0.94300
O227        O  0.57531180  0.65305034  0.92471279    -0.79300
H228        H  0.36011747  0.51759031  0.00018012    -0.04700
C229        C  0.45653541  0.36076088  0.00016893     0.89300
O230        O  0.54120173  0.56632242  0.06079702    -0.73800
O231        O  0.50381599  0.51751666  0.94201393    -0.86600
O232        O  0.29069693  0.34223645  0.99412098    -0.79400
C233        C  0.33340671  0.42700297  0.90782347     0.94400
C234        C  0.53478669  0.65664431  0.91052045     0.94300
Mg235      Mg  0.40402315  0.40203727  0.04765056     1.58000
O236        O  0.42103221  0.33275023  0.06904919    -0.79300
O237        O  0.37834687  0.46821147  0.02882822    -0.73600
O238        O  0.37766185  0.47928192  0.90910681    -0.79400
O239        O  0.68664865  0.65907348  0.95511671    -0.81100
O240        O  0.61860947  0.50954556  0.08850503    -0.79400
C241        C  0.37723978  0.48780506  0.00280735     0.88700
O242        O  0.49267908  0.47047549  0.05479223    -0.86600
O243        O  0.42834771  0.38648454  0.00419909    -0.86700
O244        O  0.50496905  0.37646337  0.01387684    -0.73700
Mg245      Mg  0.43738009  0.54265944  0.94697817     1.58000
O246        O  0.32193681  0.38946261  0.92855993    -0.81100
H247        H  0.55718582  0.66413552  0.01241194    -0.04800
O248        O  0.59985040  0.51281078  0.01674620    -0.86400
H249        H  0.63641134  0.47043031  0.99698472    -0.04700
H250        H  0.46855547  0.51129581  0.08465357    -0.04800
C251        C  0.61941439  0.50033894  0.99445661     0.88700
C252        C  0.54047516  0.62796518  0.99648227     0.89300
C253        C  0.49966041  0.51536050  0.06771800     0.89300
H254        H  0.44018798  0.32479439  0.98412977    -0.04800
O255        O  0.45490219  0.42176466  0.93573024    -0.73800
Mg256      Mg  0.55884748  0.44539822  0.05057333     1.58000
H257        H  0.52751257  0.47680692  0.91186231    -0.04800
C258        C  0.72217913  0.67231548  0.97713021     0.94300
O259        O  0.67402457  0.59919953  0.06871781    -0.81100
C260        C  0.66256360  0.56212959  0.08974164     0.94400
O261        O  0.48077608  0.61697674  0.91260379    -0.81100
Mg262      Mg  0.37610548  0.38788757  0.96735269     1.58200
O263        O  0.70645049  0.64759201  0.00264545    -0.79400
O264        O  0.31014645  0.32969397  0.04147446    -0.81100
O265        O  0.03579353  0.42969245  0.99149782    -0.86700
C266        C  0.96298939  0.49490194  0.93210806     0.89400
Mg267      Mg  0.99056450  0.37833530  0.03081783     1.58100
O268        O  0.07676971  0.59863329  0.97923628    -0.86400
O269        O  0.11887030  0.50461017  0.97641078    -0.73700
C270        C  0.89324970  0.54045242  0.09728000     0.94400
O271        O  0.90021974  0.37611470  0.97472220    -0.73500
O272        O  0.88157435  0.48681412  0.09684255    -0.81100
Mg273      Mg  0.98676709  0.40104666  0.95003068     1.58000
C274        C  0.04694731  0.72123795  0.02296039     0.94300
O275        O  0.06682932  0.41702639  0.92171703    -0.79300
H276        H  0.15895826  0.63545908  0.99566785    -0.04700
C277        C  0.90722403  0.53769360  0.00965399     0.89300
O278        O  0.04200252  0.45907548  0.06154954    -0.73800
O279        O  0.00363176  0.48925452  0.94261377    -0.86600
O280        O  0.05236324  0.70367629  0.99729602    -0.79400
C281        C  0.07741564  0.66311962  0.90832149     0.94400
C282        C  0.10238459  0.45571811  0.90337968     0.94300
Mg283      Mg  0.01079992  0.59461504  0.05188579     1.58000
O284        O  0.93068581  0.57908439  0.07959308    -0.79300
O285        O  0.09725469  0.61892766  0.02727606    -0.73600
O286        O  0.08528556  0.61857548  0.90676172    -0.79400
O287        O  0.97027674  0.30848953  0.95673445    -0.81100
O288        O  0.91178387  0.37866412  0.09525235    -0.79400
C289        C  0.11287301  0.61878551  0.00027046     0.88700
O290        O  0.99318486  0.50642230  0.05926691    -0.86600
O291        O  0.96165227  0.56594577  0.01043567    -0.86700
O292        O  0.87815491  0.49087188  0.02493968    -0.73700
Mg293      Mg  0.09516329  0.55681839  0.94242048     1.58000
O294        O  0.05373843  0.67203812  0.93096667    -0.81100
H295        H  0.11401522  0.44329336  0.00616389    -0.04800
O296        O  0.92053483  0.39701723  0.02270926    -0.86400
H297        H  0.83831794  0.35934360  0.00625309    -0.04700
H298        H  0.06388250  0.53297495  0.08594368    -0.04800
C299        C  0.88447705  0.37638469  0.00168467     0.88700
C300        C  0.09022582  0.45806841  0.99198309     0.89300
C301        C  0.03372974  0.50073510  0.06989020     0.89300
H302        H  0.88382043  0.55270221  0.99533390    -0.04800
O303        O  0.95487585  0.53664801  0.94048562    -0.73800
Mg304      Mg  0.90155265  0.43912258  0.05918915     1.58000
H305        H  0.93271551  0.46265751  0.91609239    -0.04800
C306        C  0.95172350  0.27441513  0.97921805     0.94300
O307        O  0.94294737  0.32423050  0.07160553    -0.81100
C308        C  0.91954159  0.33405117  0.09413716     0.94400
O309        O  0.11357845  0.50918494  0.90415609    -0.81100
Mg310      Mg  0.00656642  0.61724859  0.97134417     1.58200
O311        O  0.94500006  0.29132791  0.00483607    -0.79400
O312        O  0.02847812  0.68754858  0.04556309    -0.81100
O313        O  0.30020182  0.06333842  0.67014716    -0.86700
C314        C  0.35498881  0.18878642  0.73640950     0.89400
Mg315      Mg  0.35141430  0.06873619  0.63128746     1.58100
O316        O  0.24498000  0.17956054  0.68678551    -0.86400
O317        O  0.21223521  0.04520559  0.68271896    -0.73700
C318        C  0.44426785  0.34103348  0.58041209     0.94400
O319        O  0.43259508  0.15162730  0.69180944    -0.73500
O320        O  0.45863758  0.30135059  0.57712945    -0.81100
Mg321      Mg  0.34565607  0.08135505  0.71278644     1.58000
C322        C  0.27358976  0.33981192  0.65105108     0.94300
O323        O  0.26747382  0.00985345  0.73812682    -0.79300
H324        H  0.16574527  0.13406274  0.66698078    -0.04700
C325        C  0.41679219  0.30221830  0.66509347     0.89300
O326        O  0.30004781  0.09981737  0.60175595    -0.73800
O327        O  0.31916061  0.14428960  0.72242346    -0.86600
O328        O  0.26349249  0.31101711  0.67533893    -0.79400
C329        C  0.22996363  0.22365488  0.76022587     0.94400
C330        C  0.22517819  0.00245397  0.75474781     0.94300
Mg331      Mg  0.31974335  0.25990516  0.61923083     1.58000
O332        O  0.40246402  0.33352391  0.59743398    -0.79300
O333        O  0.23081361  0.18882702  0.63879448    -0.73600
O334        O  0.22585876  0.17283103  0.75882086    -0.79400
O335        O  0.37063302  0.01261954  0.70393013    -0.81100
O336        O  0.43357026  0.16447174  0.57154683    -0.79400
C337        C  0.21188288  0.16647825  0.66457043     0.88700
O338        O  0.34353168  0.19515097  0.60881172    -0.86600
O339        O  0.36256877  0.27371735  0.66213772    -0.86700
O340        O  0.45024277  0.29100726  0.64926880    -0.73700
Mg341      Mg  0.22554859  0.11205479  0.72004772     1.58000
O342        O  0.25400539  0.26196794  0.73967136    -0.81100
H343        H  0.22697807  0.99760915  0.65146574    -0.04800
O344        O  0.41691028  0.15753967  0.64373697    -0.86400
H345        H  0.49670462  0.20427081  0.66274045    -0.04700
H346        H  0.27666255  0.15305710  0.57964140    -0.04800
C347        C  0.45069522  0.17192827  0.66568275     0.88700
C348        C  0.24603096  0.03362172  0.66750848     0.89300
C349        C  0.30611267  0.15000377  0.59578147     0.89300
H350        H  0.43621349  0.33710115  0.68174131    -0.04800
O351        O  0.36061370  0.23885501  0.73078468    -0.73800
Mg352      Mg  0.43634899  0.22544398  0.61087580     1.58000
H353        H  0.38335439  0.18530292  0.75308830    -0.04800
C354        C  0.39021075  0.99932555  0.68115206     0.94300
O355        O  0.40491193  0.07510515  0.59073459    -0.81100
C356        C  0.42841428  0.11319234  0.56997444     0.94400
O357        O  0.20540544  0.03828764  0.75455733    -0.81100
Mg358      Mg  0.30948178  0.26837743  0.70015821     1.58200
O359        O  0.39626835  0.02400493  0.65577203    -0.79400
O360        O  0.29677637  0.33009554  0.62860307    -0.81100
C361        C  0.14792974  0.36123085  0.85651218     0.04000
C362        C  0.19564023  0.35069929  0.85818077     0.03900
C363        C  0.20547969  0.32106278  0.83461988    -0.16600
C364        C  0.16769664  0.30023261  0.80943205     0.04000
C365        C  0.11959823  0.31047614  0.80784506     0.03900
C366        C  0.11105252  0.34187220  0.83102757    -0.16600
H367        H  0.07378006  0.34910184  0.82980147     0.06000
H368        H  0.24342274  0.31495466  0.83584012     0.06000
C369        C  0.18529709  0.86150238  0.86221419     0.04000
C370        C  0.13017746  0.80843483  0.86425913     0.03900
C371        C  0.08448251  0.79878914  0.84409176    -0.16600
C372        C  0.09207274  0.84000624  0.82169045     0.04000
C373        C  0.14799438  0.89123808  0.81851168     0.03900
C374        C  0.19386011  0.90103431  0.83867866    -0.16600
H375        H  0.23564489  0.94184920  0.83705108     0.06000
H376        H  0.04187082  0.75907575  0.84630478     0.06000
O377        O  0.93010551  0.23819982  0.67428201    -0.86700
C378        C  0.80276252  0.17074311  0.73806137     0.89400
Mg379      Mg  0.92938687  0.28913766  0.63627745     1.58100
O380        O  0.80545295  0.06798623  0.68800957    -0.86400
O381        O  0.94092748  0.16265214  0.68562978    -0.73700
C382        C  0.66200987  0.12559610  0.57813762     0.94400
O383        O  0.84931594  0.28984499  0.69651174    -0.73500
O384        O  0.70103704  0.18022168  0.57922414    -0.81100
Mg385      Mg  0.91515797  0.26537773  0.71727339     1.58000
C386        C  0.64798030  0.94527844  0.64804784     0.94300
O387        O  0.98315139  0.24987313  0.74175635    -0.79300
H388        H  0.84811668  0.03087008  0.66920004    -0.04700
C389        C  0.69129565  0.12757500  0.66480449     0.89300
O390        O  0.89606868  0.20875595  0.60516545    -0.73800
O391        O  0.84716288  0.17677897  0.72545340    -0.86600
O392        O  0.67320706  0.96230167  0.67348198    -0.79400
C393        C  0.75517537  0.00502465  0.76039841     0.94400
C394        C  0.98733100  0.21113569  0.75727115     0.94300
Mg395      Mg  0.73350026  0.07245349  0.61889262     1.58000
O396        O  0.66613085  0.08724960  0.59395501    -0.79300
O397        O  0.79909866  0.04815080  0.63977592    -0.73600
O398        O  0.80818479  0.04844786  0.75966160    -0.79400
O399        O  0.98844672  0.35821795  0.70977865    -0.81100
O400        O  0.83883688  0.28584274  0.57635119    -0.79400
C401        C  0.81825410  0.04773279  0.66607040     0.88700
O402        O  0.80092122  0.16088789  0.61121072    -0.86600
O403        O  0.71754468  0.09965284  0.66174684    -0.86700
O404        O  0.70650326  0.17515101  0.65054297    -0.73700
Mg405      Mg  0.87237056  0.10983664  0.72201268     1.58000
O406        O  0.71821976  0.99572192  0.73943680    -0.81100
H407        H  0.99203430  0.22565065  0.65551088    -0.04800
O408        O  0.84219745  0.26991915  0.64821605    -0.86400
H409        H  0.79976884  0.30699651  0.66735071    -0.04700
H410        H  0.84028724  0.13498095  0.58151322    -0.04800
C411        C  0.82968068  0.29014091  0.67029189     0.88700
C412        C  0.95614242  0.21009032  0.67122864     0.89300
C413        C  0.84505408  0.16702421  0.59829239     0.89300
H414        H  0.65532362  0.11180423  0.68048334    -0.04800
O415        O  0.75177485  0.12922802  0.73090407    -0.73800
Mg416      Mg  0.77516930  0.22729810  0.61420597     1.58000
H417        H  0.80728883  0.20272092  0.75482338    -0.04800
C418        C  0.00111141  0.39259252  0.68753618     0.94300
O419        O  0.92872436  0.34163841  0.59621517    -0.81100
C420        C  0.89141096  0.32957958  0.57505486     0.94400
O421        O  0.94725472  0.15678631  0.75670607    -0.81100
Mg422      Mg  0.71821006  0.04887861  0.69969972     1.58200
O423        O  0.97468756  0.37610661  0.66234020    -0.79400
O424        O  0.66074506  0.97941929  0.62572510    -0.81100
O425        O  0.71993467  0.62561484  0.66083537    -0.86700
C426        C  0.84578121  0.69101093  0.59552160     0.89400
Mg427      Mg  0.71819868  0.67720002  0.69860151     1.58100
O428        O  0.85219055  0.58978596  0.64574541    -0.86400
O429        O  0.71449951  0.54157098  0.64922972    -0.73700
C430        C  0.99055681  0.79756009  0.75307475     0.94400
O431        O  0.79350292  0.75918959  0.63759052    -0.73500
O432        O  0.94731272  0.80686972  0.75450756    -0.81100
Mg433      Mg  0.73180933  0.66677598  0.61758670     1.58000
C434        C  0.01760383  0.64222188  0.68494000     0.94300
O435        O  0.66694606  0.58212382  0.59326691    -0.79300
H436        H  0.81411301  0.51059528  0.66548844    -0.04700
C437        C  0.95774269  0.76656457  0.66725265     0.89300
O438        O  0.75713099  0.63547233  0.72992889    -0.73800
O439        O  0.80347950  0.65217925  0.60926568    -0.86600
O440        O  0.99221895  0.62973171  0.65932088    -0.79400
C441        C  0.90089940  0.58035983  0.57261558     0.94400
C442        C  0.66552957  0.54183159  0.57669691     0.94300
Mg443      Mg  0.92297183  0.67182243  0.71372149     1.58000
O444        O  0.98960255  0.75822935  0.73603944    -0.79300
O445        O  0.86083078  0.57921529  0.69415569    -0.73600
O446        O  0.84776823  0.56985258  0.57402494    -0.79400
O447        O  0.65382054  0.67752101  0.62533099    -0.81100
O448        O  0.80865759  0.76850878  0.75752409    -0.79400
C449        C  0.84178601  0.55790115  0.66807563     0.88700
O450        O  0.85152544  0.68631766  0.72199338    -0.86600
O451        O  0.93474225  0.71249415  0.67042201    -0.86700
O452        O  0.94069262  0.79670508  0.68214728    -0.73700
Mg453      Mg  0.78316046  0.56147923  0.61217313     1.58000
O454        O  0.93867424  0.60782341  0.59337207    -0.81100
H455        H  0.66202337  0.54935728  0.68003563    -0.04800
O456        O  0.80343289  0.74853512  0.68578887    -0.86400
H457        H  0.84075375  0.82782406  0.66618039    -0.04700
H458        H  0.81694408  0.62212582  0.75267844    -0.04800
C459        C  0.81325116  0.78050336  0.66357639     0.88700
C460        C  0.69707868  0.57155392  0.66399506     0.89300
C461        C  0.80935662  0.64746756  0.73581878     0.89300
H462        H  0.99265523  0.78864045  0.65112757    -0.04800
O463        O  0.89792874  0.70282898  0.60148273    -0.73800
Mg464      Mg  0.87228896  0.77671726  0.71932725     1.58000
H465        H  0.83838110  0.71643249  0.57863437    -0.04800
C466        C  0.63721625  0.69571698  0.64740836     0.94300
O467        O  0.71807954  0.73210777  0.73805691    -0.81100
C468        C  0.75600640  0.75915213  0.75881497     0.94400
O469        O  0.70735432  0.53017683  0.57711893    -0.81100
Mg470      Mg  0.93747977  0.66172212  0.63286964     1.58200
O471        O  0.66519248  0.71097132  0.67229468    -0.79400
O472        O  0.99961719  0.65938549  0.70681133    -0.81100
C473        C  0.62641170  0.78528784  0.85722497     0.04000
C474        C  0.61390709  0.83190249  0.85645686     0.03900
C475        C  0.63532869  0.87232485  0.83248649    -0.16600
C476        C  0.66736083  0.86596359  0.80900473     0.04000
C477        C  0.67739181  0.81753763  0.80916337     0.03900
C478        C  0.65797071  0.77877881  0.83372909    -0.16600
H479        H  0.66513870  0.74135290  0.83405251     0.06000
H480        H  0.62776071  0.90950229  0.83230391     0.06000
C481        C  0.01996716  0.53721387  0.47222395     0.04000
C482        C  0.01602554  0.48108850  0.47252653     0.03900
C483        C  0.99297163  0.44496765  0.49795901    -0.16600
C484        C  0.97392881  0.46344566  0.52298953     0.04000
C485        C  0.97738329  0.51919608  0.52254922     0.03900
C486        C  0.00017913  0.55527597  0.49715337    -0.16600
H487        H  0.00277750  0.59801529  0.49685449     0.06000
H488        H  0.99013320  0.40212622  0.49836889     0.06000
C489        C  0.45588120  0.48879090  0.47626281     0.04000
C490        C  0.49484676  0.54808190  0.48487732     0.03900
C491        C  0.53195275  0.55915050  0.50999547    -0.16600
C492        C  0.53365382  0.51318515  0.52577732     0.04000
C493        C  0.49498760  0.45384991  0.51698760     0.03900
C494        C  0.45749920  0.44281688  0.49205033    -0.16600
H495        H  0.42726582  0.39737591  0.48552047     0.06000
H496        H  0.56235768  0.60460427  0.51642579     0.06000
C497        C  0.46113350  0.97993137  0.47387912     0.04000
C498        C  0.50744989  0.96731905  0.47710283     0.03900
C499        C  0.54453642  0.98910649  0.50248614    -0.16600
C500        C  0.53719755  0.02391645  0.52414356     0.04000
C501        C  0.49049814  0.03592350  0.52110700     0.03900
C502        C  0.45364324  0.01453046  0.49562945    -0.16600
H503        H  0.41671967  0.02210890  0.49339483     0.06000
H504        H  0.58146515  0.98153748  0.50474342     0.06000
C505        C  0.01050037  0.94945009  0.00120298     0.04000
C506        C  0.05462949  0.00785929  0.00787239     0.04000
C507        C  0.04346534  0.05470672  0.00351960     0.04000
C508        C  0.98877187  0.04311786  0.99163909     0.04000
C509        C  0.94492114  0.98474421  0.98460354     0.04000
C510        C  0.95578610  0.93769784  0.98918902     0.04000
C511        C  0.71829811  0.32224079  0.32202219     0.04000
C512        C  0.73288869  0.38102346  0.32778244     0.04000
C513        C  0.69031046  0.39345069  0.33910603     0.04000
C514        C  0.63237423  0.34708318  0.34360663     0.04000
C515        C  0.61771929  0.28838116  0.33762039     0.04000
C516        C  0.66058287  0.27574907  0.32696258     0.04000
C517        C  0.28264362  0.67871106  0.68014676     0.04000
C518        C  0.33990930  0.72619623  0.67547511     0.04000
C519        C  0.38397636  0.71476089  0.66552251     0.04000
C520        C  0.37159035  0.65631812  0.66098735     0.04000
C521        C  0.31433742  0.60883188  0.66560714     0.04000
C522        C  0.27006054  0.62019177  0.67535208     0.04000
C523        C  0.07306344  0.64486579  0.68840922    -0.16800
C524        C  0.12431757  0.65937214  0.69052387     0.07200
C525        C  0.18511871  0.67942597  0.69061235     0.09100
C526        C  0.23428390  0.68788221  0.68760647    -0.17700
C527        C  0.58072063  0.69128538  0.64540699    -0.16800
C528        C  0.52916904  0.67609530  0.64549892     0.07200
C529        C  0.46852713  0.65586190  0.64804227     0.09100
C530        C  0.41973949  0.64733338  0.65267198    -0.17700
C531        C  0.73826389  0.78006091  0.78537683    -0.14800
C532        C  0.70277178  0.80343953  0.78276289    -0.29900
H533        H  0.75533326  0.77717196  0.80726483     0.14300
H534        H  0.69058693  0.81098933  0.76047308     0.14800
C535        C  0.57662961  0.53082450  0.55114934    -0.14800
C536        C  0.61528848  0.51127575  0.55512421    -0.29900
H537        H  0.58165008  0.56766632  0.56470638     0.14300
H538        H  0.61339599  0.47711133  0.54050216     0.14800
C539        C  0.91904130  0.55927338  0.54616870    -0.14800
C540        C  0.95880211  0.54109888  0.54869938    -0.29900
H541        H  0.89730701  0.55548747  0.52469717     0.14300
H542        H  0.97650774  0.54004603  0.57072055     0.14800
C543        C  0.59828298  0.88726811  0.64590238    -0.16800
C544        C  0.55032473  0.84433371  0.64798715     0.07200
C545        C  0.49210540  0.80014631  0.65354561     0.09100
C546        C  0.44246860  0.76303399  0.65925715    -0.17700
C547        C  0.21071261  0.57197140  0.68010207    -0.16800
C548        C  0.16008108  0.53531531  0.68420924     0.07200
C549        C  0.10073828  0.49205924  0.68813821     0.09100
C550        C  0.05193462  0.45003435  0.68951975    -0.17700
C551        C  0.68763413  0.90890578  0.78390801    -0.14800
C552        C  0.73578601  0.96330422  0.78607892    -0.29900
H553        H  0.66282571  0.89445172  0.76293675     0.14300
H554        H  0.76219325  0.97627448  0.80658485     0.14800
C555        C  0.61190037  0.10450677  0.55671471    -0.14800
C556        C  0.57992088  0.04660961  0.54948186    -0.29900
H557        H  0.60457569  0.13662728  0.54480583     0.14300
H558        H  0.59083609  0.01545247  0.55970946     0.14800
C559        C  0.90989414  0.36763800  0.54814796    -0.14800
C560        C  0.95253224  0.42482368  0.54980822    -0.29900
H561        H  0.88735981  0.34917748  0.52689967     0.14300
H562        H  0.97161131  0.44430788  0.57152858     0.14800
C563        C  0.04017962  0.82651624  0.80219318    -0.14800
C564        C  0.04351308  0.83029318  0.77211281    -0.29900
H565        H  0.99683215  0.80359565  0.81235584     0.14300
H566        H  0.08570674  0.84515202  0.76146753     0.14800
C567        C  0.03906688  0.23105525  0.77759292    -0.14800
C568        C  0.07649130  0.28906973  0.78267112    -0.29900
H569        H  0.04363117  0.19825220  0.79053212     0.14300
H570        H  0.06939333  0.32187792  0.77133973     0.14800
C571        C  0.26514993  0.38976274  0.65032511    -0.16800
C572        C  0.27051288  0.43816902  0.65193260     0.07200
C573        C  0.28550852  0.49759576  0.65567659     0.09100
C574        C  0.30010066  0.54863232  0.65987923    -0.17700
C575        C  0.35432987  0.78674984  0.68029794    -0.16800
C576        C  0.37124337  0.83872730  0.68274450     0.07200
C577        C  0.39000579  0.89951071  0.68372835     0.09100
C578        C  0.39793606  0.94901016  0.68316043    -0.17700
C579        C  0.20365214  0.95260026  0.77602061    -0.14800
C580        C  0.15955378  0.93701177  0.79546985    -0.29900
H581        H  0.22797175  0.92892161  0.77678641     0.14300
H582        H  0.13216940  0.95732580  0.79453788     0.14800
C583        C  0.18340413  0.27516543  0.78349207    -0.14800
C584        C  0.20652594  0.23942042  0.78650723    -0.29900
H585        H  0.17727000  0.28804448  0.76110642     0.14300
H586        H  0.20836428  0.22191300  0.80838206     0.14800
C587        C  0.45061677  0.09675016  0.54341348    -0.14800
C588        C  0.47414994  0.06146280  0.54658390    -0.29900
H589        H  0.44814429  0.11370818  0.52148851     0.14300
H590        H  0.48060003  0.04937320  0.56910496     0.14800
C591        C  0.48668355  0.40178474  0.53473997    -0.14800
C592        C  0.47422502  0.39779492  0.56413664    -0.29900
H593        H  0.47853063  0.36220993  0.52266727     0.14300
H594        H  0.47513726  0.43535265  0.57516479     0.14800
C595        C  0.94451346  0.21662557  0.97687788    -0.16800
C596        C  0.94968999  0.17347992  0.97828902     0.07200
C597        C  0.96363265  0.12845254  0.98245601     0.09100
C598        C  0.97673763  0.09098431  0.98678534    -0.17700
C599        C  0.02171693  0.90173455  0.00779475    -0.16800
C600        C  0.03518986  0.86550214  0.01457108     0.07200
C601        C  0.04983922  0.82206319  0.02178862     0.09100
C602        C  0.05504965  0.77927374  0.02497847    -0.17700
C603        C  0.09620325  0.70632247  0.88330278    -0.14800
C604        C  0.11726087  0.76453840  0.88865637    -0.29900
H605        H  0.09335854  0.69064384  0.86041133     0.14300
H606        H  0.12405085  0.78039536  0.91171691     0.14800
C607        C  0.13280369  0.38757938  0.88213752    -0.14800
C608        C  0.12824237  0.43654029  0.87939941    -0.29900
H609        H  0.12348731  0.36481584  0.90356045     0.14300
H610        H  0.14108790  0.46132786  0.85854801     0.14800
C611        C  0.08750984  0.11451697  0.01142731    -0.16800
C612        C  0.12423890  0.16479858  0.01703896     0.07200
C613        C  0.17073178  0.22296268  0.02144758     0.09100
C614        C  0.21567960  0.26978664  0.02242732    -0.17700
C615        C  0.78079146  0.72137802  0.97424721    -0.16800
C616        C  0.82559927  0.76858229  0.97459298     0.07200
C617        C  0.87294268  0.82696278  0.97776733     0.09100
C618        C  0.91080000  0.87746180  0.98227547    -0.17700
C619        C  0.60833741  0.74221300  0.88209920    -0.14800
C620        C  0.55171930  0.70712852  0.88997404    -0.29900
H621        H  0.64195064  0.73355406  0.89113382     0.14300
H622        H  0.51729947  0.71250151  0.87922084     0.14800
C623        C  0.29363220  0.40929752  0.88158250    -0.14800
C624        C  0.23589066  0.37030300  0.88437682    -0.29900
H625        H  0.31115200  0.42973455  0.85999404     0.14300
H626        H  0.21736967  0.35363567  0.90638274     0.14800
C627        C  0.76378133  0.00906218  0.97011212    -0.16800
C628        C  0.80178398  0.99618388  0.96868034     0.07200
C629        C  0.84557604  0.98012289  0.97016690     0.09100
C630        C  0.88784501  0.97465011  0.97486742    -0.17700
C631        C  0.11181174  0.01818408  0.01783895    -0.16800
C632        C  0.15499074  0.01449524  0.02314573     0.07200
C633        C  0.20134119  0.00206419  0.02561101     0.09100
C634        C  0.24182722  0.99266344  0.02471344    -0.17700
C635        C  0.29021220  0.90816716  0.88053978    -0.14800
C636        C  0.23177375  0.87930481  0.88609053    -0.29900
H637        H  0.30579766  0.91421014  0.85757505     0.14300
H638        H  0.21745918  0.86926644  0.90924786     0.14800
C639        C  0.58648158  0.84411019  0.88241087    -0.14800
C640        C  0.53906251  0.85108142  0.87962873    -0.29900
H641        H  0.60783629  0.85005240  0.90420474     0.14300
H642        H  0.51575481  0.84192211  0.85822886     0.14800
C643        C  0.86343523  0.61016224  0.11679586    -0.14800
C644        C  0.86572311  0.56003535  0.12011580    -0.29900
H645        H  0.87602225  0.63389502  0.09563597     0.14300
H646        H  0.85016235  0.53486632  0.14075937     0.14800
C647        C  0.75844910  0.62413370  0.11434193    -0.14800
C648        C  0.70185791  0.58098858  0.11635546    -0.29900
H649        H  0.77668329  0.64352656  0.09266959     0.14300
H650        H  0.68500257  0.55838164  0.13756511     0.14800
C651        C  0.60945527  0.05545068  0.31839355    -0.16800
C652        C  0.61428411  0.10367847  0.31801546     0.07200
C653        C  0.62948672  0.16345175  0.31919514     0.09100
C654        C  0.64491037  0.21501412  0.32178775    -0.17700
C655        C  0.73498203  0.60994145  0.35388657    -0.16800
C656        C  0.73328984  0.56317671  0.35341406     0.07200
C657        C  0.72086241  0.50456496  0.35027917     0.09100
C658        C  0.70646338  0.45372982  0.34584083    -0.17700
C659        C  0.54624555  0.90474039  0.45589778    -0.14800
C660        C  0.52326859  0.94041800  0.45202675    -0.29900
H661        H  0.54797436  0.88813581  0.47804207     0.14300
H662        H  0.51749744  0.95217315  0.42930847     0.14800
C663        C  0.51780561  0.60235422  0.43713003    -0.14800
C664        C  0.50457809  0.59980390  0.46638747    -0.29900
H665        H  0.51651640  0.56405258  0.42678067     0.14300
H666        H  0.51312819  0.64006247  0.47787692     0.14800
C667        C  0.78642991  0.75485909  0.21362283    -0.14800
C668        C  0.81041223  0.71980675  0.21566096    -0.29900
H669        H  0.78318829  0.77241985  0.19200641     0.14300
H670        H  0.81809095  0.70705162  0.23776616     0.14800
C671        C  0.55793757  0.24118112  0.34250489    -0.16800
C672        C  0.50731803  0.20463618  0.34671128     0.07200
C673        C  0.44824723  0.16066980  0.35061269     0.09100
C674        C  0.39992517  0.11787797  0.35179934    -0.17700
C675        C  0.94769502  0.55391721  0.30810802    -0.16800
C676        C  0.90001011  0.51053162  0.31054132     0.07200
C677        C  0.84192872  0.46565172  0.31620437     0.09100
C678        C  0.79210100  0.42851582  0.32177606    -0.17700
C679        C  0.08429499  0.63491924  0.44865926    -0.14800
C680        C  0.04331126  0.57717291  0.44591471    -0.29900
H681        H  0.10456399  0.65281086  0.47041498     0.14300
H682        H  0.02676051  0.55855626  0.42373990     0.14800
C683        C  0.38437325  0.89987710  0.44197556    -0.14800
C684        C  0.41876466  0.95788539  0.44836997    -0.29900
H685        H  0.39001931  0.86729759  0.45449781     0.14300
H686        H  0.40988455  0.98991199  0.43748005     0.14800
C687        C  0.92130994  0.71367811  0.21470508    -0.14800
C688        C  0.95876103  0.77199158  0.21907391    -0.29900
H689        H  0.92874596  0.68152212  0.22649944     0.14300
H690        H  0.95376635  0.80414422  0.20577737     0.14800
C691        C  0.87819709  0.23324117  0.11471074    -0.14800
C692        C  0.90058507  0.29179701  0.11958406    -0.29900
H693        H  0.87073764  0.21718207  0.09165943     0.14300
H694        H  0.90369798  0.30851185  0.14225600     0.14800
C695        C  0.72088691  0.10459221  0.11268808    -0.14800
C696        C  0.77498689  0.11094500  0.10979087    -0.29900
H697        H  0.70903726  0.11661435  0.13379402     0.14300
H698        H  0.78852707  0.10191849  0.08838240     0.14800
C699        C  0.83641715  0.05276875  0.20320223    -0.14800
C700        C  0.81854045  0.05415382  0.23120962    -0.29900
H701        H  0.83108925  0.01155781  0.19442131     0.14300
H702        H  0.81754921  0.09329319  0.23860689     0.14800
C703        C  0.45755462  0.27645087  0.13084969    -0.14800
C704        C  0.43947674  0.27506333  0.10245520    -0.29900
H705        H  0.49231311  0.31793743  0.14013751     0.14300
H706        H  0.39998790  0.23571733  0.09449824     0.14800
C707        C  0.47496262  0.16808667  0.11245940    -0.14800
C708        C  0.41859679  0.14568353  0.12145338    -0.29900
H709        H  0.51043917  0.20614024  0.12388592     0.14300
H710        H  0.38457098  0.10465455  0.11139775     0.14800
C711        C  0.30247085  0.09913944  0.21549097    -0.14800
C712        C  0.26477172  0.04086330  0.21082880    -0.29900
H713        H  0.31196429  0.11544903  0.23850558     0.14300
H714        H  0.25047724  0.02367755  0.18823055     0.14800
C715        C  0.58572780  0.35782293  0.35286702    -0.16800
C716        C  0.53789519  0.35175042  0.35771863     0.07200
C717        C  0.47775261  0.33434502  0.35982665     0.09100
C718        C  0.42646460  0.32038344  0.35901722    -0.17700
C719        C  0.92244179  0.34418395  0.30643785    -0.16800
C720        C  0.87185703  0.33250727  0.30548776     0.07200
C721        C  0.81225716  0.31687834  0.30764495     0.09100
C722        C  0.76479435  0.31150459  0.31263374    -0.17700
C723        C  0.07078981  0.43596653  0.44987734    -0.14800
C724        C  0.03519629  0.45911098  0.44651812    -0.29900
H725        H  0.08920652  0.43625503  0.47189659     0.14300
H726        H  0.02145458  0.46383562  0.42407443     0.14800
C727        C  0.37620266  0.49189108  0.44540516    -0.14800
C728        C  0.41377737  0.47131958  0.45054578    -0.29900
H729        H  0.37748914  0.52623567  0.45965173     0.14300
H730        H  0.40889293  0.43407576  0.43739076     0.14800
C731        C  0.96805795  0.15895690  0.22153492    -0.14800
C732        C  0.93359088  0.18114557  0.21257912    -0.29900
H733        H  0.96524207  0.12098025  0.21002296     0.14300
H734        H  0.94044155  0.22200332  0.22267569     0.14800
C735        C  0.33193900  0.22555940  0.21974928    -0.14800
C736        C  0.27556995  0.21359075  0.22066469    -0.29900
H737        H  0.36413606  0.25662368  0.23571278     0.14300
H738        H  0.24414338  0.18440062  0.20384798     0.14800
loop_ 
_geom_bond_atom_site_label_1 
_geom_bond_atom_site_label_2 
_geom_bond_distance 
_geom_bond_site_symmetry_2 
_ccdc_geom_bond_type 
O1           Mg3   2.171       .  S
O1           Mg9   2.154       .  S
O1           C36   1.236       .  S
C2           O15   1.232       .  S
C2           O39   1.265       .  A
C2           H41   1.081       .  S
Mg3          O32   2.157       .  S
Mg3          O47   2.298       .  S
Mg3          O43   2.281       .  S
Mg3          O14   2.297       .  S
O4          Mg46   2.170       .  S
O4          Mg29   2.152       .  S
O4           C25   1.236       .  S
O5           C36   1.271       .  A
O5          Mg29   2.310       .  S
C6            O8   1.275       .  A
C6           O20   1.269       .  A
C6          C727   1.488       .  S
O7           C35   1.272       .  A
O7           Mg9   2.305       .  S
O8          Mg40   2.318       .  S
Mg9          O15   2.135       .  S
Mg9          O23   2.237   1_455  S
Mg9          O11   2.277       .  S
C10          O48   1.264       .  A
C10          O16   1.271       .  A
C10         C718   1.431       .  S
O11          C18   1.273       .  A
H12          C25   1.081       .  S
C13          O27   1.236       .  S
C13          O28   1.272       .  A
C13          H38   1.081       .  S
O14          C37   1.268       .  A
O15         Mg29   2.165       .  S
O16         Mg46   2.296       .  S
C17          O30   1.273       .  A
C17          O22   1.281       .  A
C17         C736   1.486       .  S
C18          O45   1.276       .  A
C18         C731   1.488   1_455  S
Mg19         O26   2.135       .  S
Mg19         O27   2.156       .  S
Mg19         O20   2.256       .  S
Mg19         O21   2.297       .  S
Mg19         O48   2.234       .  S
O21          C25   1.270       .  A
O22         Mg29   2.347       .  S
O23          C42   1.265       .  A
O24          C44   1.278       .  A
O24         Mg40   2.334       .  S
O26         Mg40   2.156       .  S
O26          C37   1.233       .  S
O27         Mg46   2.160       .  S
O28         Mg40   2.311       .  S
Mg29         O45   2.311       .  S
O30         Mg46   2.256       .  S
H31          C36   1.081       .  S
O32         Mg40   2.159       .  S
O32          C35   1.237       .  S
H33          C35   1.081       .  S
H34          C37   1.081       .  S
O39         Mg46   2.288       .  S
C42          O47   1.272   1_655  A
C42         C719   1.429       .  S
O43          C44   1.274       .  A
C44         C723   1.480       .  S
C49         C711   1.494       .  S
C49          C50   1.416       .  A
C49          C54   1.409       .  A
C50         C735   1.484       .  S
C50          C51   1.402       .  A
C51          H56   1.085       .  S
C51          C52   1.403       .  A
C52         C703   1.484       .  S
C52          C53   1.416       .  A
C53         C708   1.488       .  S
C53          C54   1.411       .  A
C54          H55   1.084       .  S
C57         C699   1.487       .  S
C57          C58   1.415       .  A
C57          C62   1.406       .  A
C58         C732   1.485       .  S
C58          C59   1.410       .  A
C59          H64   1.084       .  S
C59          C60   1.408       .  A
C60         C691   1.496       .  S
C60          C61   1.417       .  A
C61         C696   1.486       .  S
C61          C62   1.406       .  A
C62          H63   1.085       .  S
O65         Mg67   2.160       .  S
O65         Mg73   2.153       .  S
O65         C100   1.236       .  S
C66          O79   1.234       .  S
C66         O103   1.267       .  A
C66         H105   1.081       .  S
Mg67         O96   2.149       .  S
Mg67        O111   2.279   1_565  S
Mg67        O107   2.253   1_565  S
Mg67         O78   2.291       .  S
O68        Mg110   2.151       .  S
O68         Mg93   2.148       .  S
O68          C89   1.238       .  S
O69         C100   1.271       .  A
O69         Mg93   2.305       .  S
C70          O72   1.277       .  A
C70          O84   1.273       .  A
C70         C688   1.485   1_455  S
O71          C99   1.272       .  A
O71         Mg73   2.302       .  S
O72        Mg104   2.307       .  S
Mg73         O79   2.126       .  S
Mg73         O87   2.242   1_565  S
Mg73         O75   2.280       .  S
C74         O112   1.266   1_655  A
C74          O80   1.268   1_655  A
C74         C675   1.427       .  S
O75          C82   1.273       .  A
H76          C89   1.081       .  S
C77          O91   1.236       .  S
C77          O92   1.271       .  A
C77         H102   1.081       .  S
O78         C101   1.268       .  A
O79         Mg93   2.158       .  S
O80        Mg110   2.275       .  S
C81          O94   1.271       .  A
C81          O86   1.279       .  A
C81         C679   1.479       .  S
C82         O109   1.275       .  A
C82         C683   1.482       .  S
Mg83         O90   2.132       .  S
Mg83         O91   2.148       .  S
Mg83         O84   2.281       .  S
Mg83         O85   2.306       .  S
Mg83        O112   2.250       .  S
O85          C89   1.273       .  A
O86         Mg93   2.344       .  S
O87         C106   1.266       .  A
O88         C108   1.282       .  A
O88        Mg104   2.363       .  S
O90        Mg104   2.161       .  S
O90         C101   1.234       .  S
O91        Mg110   2.157       .  S
O92        Mg104   2.307       .  S
Mg93        O109   2.295       .  S
O94        Mg110   2.250       .  S
H95         C100   1.081       .  S
O96        Mg104   2.152       .  S
O96          C99   1.238       .  S
H97          C99   1.081       .  S
H98         C101   1.081       .  S
O103       Mg110   2.290       .  S
C106        O111   1.269       .  A
C106        C674   1.426       .  S
O107        C108   1.272   1_545  A
C108        C712   1.485   1_565  S
O113       Mg115   2.158       .  S
O113       Mg121   2.147       .  S
O113        C148   1.237       .  S
C114        O127   1.233       .  S
C114        O151   1.267       .  A
C114        H153   1.081       .  S
Mg115       O144   2.154       .  S
Mg115       O159   2.287       .  S
Mg115       O155   2.260       .  S
Mg115       O126   2.293       .  S
O116       Mg158   2.156       .  S
O116       Mg141   2.162       .  S
O116        C137   1.238       .  S
O117        C148   1.272       .  A
O117       Mg141   2.310       .  S
C118        O120   1.276   1_545  A
C118        O132   1.273   1_545  A
C118        C700   1.480       .  S
O119        C147   1.273       .  A
O119       Mg121   2.305       .  S
O120       Mg152   2.303       .  S
Mg121       O127   2.124       .  S
Mg121       O135   2.237       .  S
Mg121       O123   2.287       .  S
C122        O160   1.265   1_545  A
C122        O128   1.270   1_545  A
C122        C651   1.428       .  S
O123        C130   1.272       .  A
H124        C137   1.081       .  S
C125        O139   1.237       .  S
C125        O140   1.272       .  A
C125        H150   1.081       .  S
O126        C149   1.268       .  A
O127       Mg141   2.148       .  S
O128       Mg158   2.293       .  S
C129        O142   1.272       .  A
C129        O134   1.279       .  A
C129        C659   1.478       .  S
C130        O157   1.277       .  A
C130        C663   1.477       .  S
Mg131       O138   2.127       .  S
Mg131       O139   2.148       .  S
Mg131       O132   2.301       .  S
Mg131       O133   2.308       .  S
Mg131       O160   2.234       .  S
O133        C137   1.273       .  A
O134       Mg141   2.345       .  S
O135        C154   1.265       .  A
O136        C156   1.279       .  A
O136       Mg152   2.341       .  S
O138       Mg152   2.145       .  S
O138        C149   1.234       .  S
O139       Mg158   2.162       .  S
O140       Mg152   2.313       .  S
Mg141       O157   2.317       .  S
O142       Mg158   2.249       .  S
H143        C148   1.081       .  S
O144       Mg152   2.155       .  S
O144        C147   1.239       .  S
H145        C147   1.081       .  S
H146        C149   1.081       .  S
O151       Mg158   2.291       .  S
C154        O159   1.270       .  A
C154        C655   1.426       .  S
O155        C156   1.272       .  A
C156        C667   1.479       .  S
C161        C668   1.487       .  S
C161        C162   1.414       .  A
C161        C166   1.409       .  A
C162        C687   1.480       .  S
C162        C163   1.404       .  A
C163        H168   1.085       .  S
C163        C164   1.401       .  A
C164        C643   1.485       .  S
C164        C165   1.410       .  A
C165        C647   1.476       .  S
C165        C166   1.407       .  A
C166        H167   1.084       .  S
O169       Mg171   2.173   1_554  S
O169       Mg177   2.161       .  S
O169        C204   1.237       .  S
C170        O183   1.232   1_565  S
C170        O207   1.265       .  A
C170        H209   1.081       .  S
Mg171       O200   2.159   1_545  S
Mg171       O215   2.291   1_545  S
Mg171       O211   2.279   1_545  S
Mg171       O182   2.301       .  S
O172       Mg214   2.165       .  S
O172       Mg197   2.156       .  S
O172        C193   1.238   1_554  S
O173        C204   1.272       .  A
O173       Mg197   2.310       .  S
C174        O176   1.273       .  A
C174        O188   1.270       .  A
C174        C640   1.481       .  S
O175        C203   1.271   1_554  A
O175       Mg177   2.302   1_565  S
O176       Mg208   2.301       .  S
Mg177       O183   2.135       .  S
Mg177       O191   2.246       .  S
Mg177       O179   2.271       .  S
C178        O216   1.263   1_545  A
C178        O184   1.270       .  A
C178        C627   1.428       .  S
O179        C186   1.272       .  A
H180        C193   1.081       .  S
C181        O195   1.237       .  S
C181        O196   1.274       .  A
C181        H206   1.081   1_556  S
O182        C205   1.268       .  A
O183       Mg197   2.159       .  S
O184       Mg214   2.293   1_556  S
C185        O198   1.274       .  A
C185        O190   1.281       .  A
C185        C695   1.485       .  S
C186        O213   1.276       .  A
C186        C707   1.486       .  S
Mg187       O194   2.143       .  S
Mg187       O195   2.148       .  S
Mg187       O188   2.285       .  S
Mg187       O189   2.304   1_565  S
Mg187       O216   2.230       .  S
O189        C193   1.272       .  A
O190       Mg197   2.352       .  S
O191        C210   1.266   1_545  A
O192        C212   1.279       .  A
O192       Mg208   2.344       .  S
O194       Mg208   2.138       .  S
O194        C205   1.233   1_565  S
O195       Mg214   2.171   1_566  S
O196       Mg208   2.324       .  S
Mg197       O213   2.313       .  S
O198       Mg214   2.271       .  S
H199        C204   1.081   1_556  S
O200       Mg208   2.155       .  S
O200        C203   1.237       .  S
H201        C203   1.081       .  S
H202        C205   1.081       .  S
O207       Mg214   2.290   1_565  S
C210        O215   1.271   1_554  A
C210        C634   1.431       .  S
O211        C212   1.273       .  A
C212        C635   1.483       .  S
O217       Mg219   2.145   1_556  S
O217       Mg225   2.150       .  S
O217        C252   1.236       .  S
C218        O231   1.235       .  S
C218        O255   1.268       .  A
C218        H257   1.081       .  S
Mg219       O248   2.153       .  S
Mg219       O263   2.299       .  S
Mg219       O259   2.244       .  S
Mg219       O230   2.294       .  S
O220       Mg262   2.149       .  S
O220       Mg245   2.147       .  S
O220        C241   1.238   1_556  S
O221        C252   1.270       .  A
O221       Mg245   2.298       .  S
C222        O224   1.276       .  A
C222        O236   1.270       .  A
C222        C704   1.473       .  S
O223        C251   1.272       .  A
O223       Mg225   2.304       .  S
O224       Mg256   2.306       .  S
Mg225       O231   2.129       .  S
Mg225       O239   2.253       .  S
Mg225       O227   2.286       .  S
C226        O264   1.266       .  A
C226        O232   1.270   1_554  A
C226        C614   1.428       .  S
O227        C234   1.274       .  A
H228        C241   1.081       .  S
C229        O243   1.237       .  S
C229        O244   1.271       .  A
C229        H254   1.081   1_554  S
O230        C253   1.268       .  A
O231       Mg245   2.160       .  S
O232       Mg262   2.287       .  S
C233        O246   1.270       .  A
C233        O238   1.276       .  A
C233        C623   1.470       .  S
C234        O261   1.273       .  A
C234        C620   1.481       .  S
Mg235       O242   2.128       .  S
Mg235       O243   2.143       .  S
Mg235       O236   2.276       .  S
Mg235       O237   2.301       .  S
Mg235       O264   2.245       .  S
O237        C241   1.272       .  A
O238       Mg245   2.322       .  S
O239        C258   1.268       .  A
O240        C260   1.278       .  A
O240       Mg256   2.332       .  S
O242       Mg256   2.148       .  S
O242        C253   1.235       .  S
O243       Mg262   2.138   1_554  S
O244       Mg256   2.307       .  S
Mg245       O261   2.285       .  S
O246       Mg262   2.238       .  S
H247        C252   1.081   1_554  S
O248       Mg256   2.158       .  S
O248        C251   1.237   1_554  S
H249        C251   1.081       .  S
H250        C253   1.081       .  S
O255       Mg262   2.292       .  S
C258        O263   1.272   1_556  A
C258        C615   1.433       .  S
O259        C260   1.271       .  A
C260        C648   1.475       .  S
O265       Mg267   2.171   1_456  S
O265       Mg273   2.147   1_455  S
O265        C300   1.236       .  S
C266        O279   1.234   1_655  S
C266        O303   1.268       .  A
C266        H305   1.081       .  S
Mg267       O296   2.150       .  S
Mg267       O311   2.279       .  S
Mg267       O307   2.264       .  S
Mg267       O278   2.294   1_655  S
O268       Mg310   2.151       .  S
O268       Mg293   2.158       .  S
O268        C289   1.239   1_556  S
O269        C300   1.272       .  A
O269       Mg293   2.315       .  S
C270        O272   1.276       .  A
C270        O284   1.274       .  A
C270        C644   1.483       .  S
O271        C299   1.274   1_556  A
O271       Mg273   2.312       .  S
O272       Mg304   2.304       .  S
Mg273       O279   2.144   1_655  S
Mg273       O287   2.254       .  S
Mg273       O275   2.310   1_655  S
C274        O312   1.266       .  A
C274        O280   1.267   1_554  A
C274        C602   1.425       .  S
O275        C282   1.276       .  A
H276        C289   1.081   1_556  S
C277        O291   1.236       .  S
C277        O292   1.271       .  A
C277        H302   1.081   1_554  S
O278        C301   1.268       .  A
O279       Mg293   2.153       .  S
O280       Mg310   2.267       .  S
C281        O294   1.270       .  A
C281        O286   1.282       .  A
C281        C603   1.486       .  S
C282        O309   1.276       .  A
C282        C608   1.484       .  S
Mg283       O290   2.137   1_455  S
Mg283       O291   2.148   1_455  S
Mg283       O284   2.300   1_455  S
Mg283       O285   2.312       .  S
Mg283       O312   2.251       .  S
O285        C289   1.274       .  A
O286       Mg293   2.365       .  S
O287        C306   1.267       .  A
O288        C308   1.281       .  A
O288       Mg304   2.357       .  S
O290       Mg304   2.153       .  S
O290        C301   1.234   1_655  S
O291       Mg310   2.160   1_654  S
O292       Mg304   2.310       .  S
Mg293       O309   2.303       .  S
O294       Mg310   2.253       .  S
H295        C300   1.081   1_554  S
O296       Mg304   2.158       .  S
O296        C299   1.238       .  S
H297        C299   1.081       .  S
H298        C301   1.081       .  S
O303       Mg310   2.296   1_655  S
C306        O311   1.268   1_556  A
C306        C595   1.429       .  S
O307        C308   1.272       .  A
C308        C692   1.486       .  S
O313       Mg315   2.160       .  S
O313       Mg321   2.154       .  S
O313        C348   1.236       .  S
C314        O327   1.232       .  S
C314        O351   1.266       .  A
C314        H353   1.081       .  S
Mg315       O344   2.153       .  S
Mg315       O359   2.298       .  S
Mg315       O355   2.250       .  S
Mg315       O326   2.293       .  S
O316       Mg358   2.158       .  S
O316       Mg341   2.162       .  S
O316        C337   1.239       .  S
O317        C348   1.271       .  A
O317       Mg341   2.306       .  S
C318        O320   1.277       .  A
C318        O332   1.270       .  A
C318        C592   1.478       .  S
O319        C347   1.271       .  A
O319       Mg321   2.299       .  S
O320       Mg352   2.320       .  S
Mg321       O327   2.126       .  S
Mg321       O335   2.234       .  S
Mg321       O323   2.274       .  S
C322        O360   1.264       .  A
C322        O328   1.268       .  A
C322        C571   1.429       .  S
O323        C330   1.271       .  A
H324        C337   1.081       .  S
C325        O339   1.237       .  S
C325        O340   1.273       .  A
C325        H350   1.081       .  S
O326        C349   1.268       .  A
O327       Mg341   2.161       .  S
O328       Mg358   2.287       .  S
C329        O342   1.271       .  A
C329        O334   1.279       .  A
C329        C584   1.477       .  S
C330        O357   1.277       .  A
C330        C579   1.478   1_545  S
Mg331       O338   2.128       .  S
Mg331       O339   2.143       .  S
Mg331       O332   2.282       .  S
Mg331       O333   2.312       .  S
Mg331       O360   2.238       .  S
O333        C337   1.274       .  A
O334       Mg341   2.343       .  S
O335        C354   1.265   1_545  A
O336        C356   1.280       .  A
O336       Mg352   2.344       .  S
O338       Mg352   2.150       .  S
O338        C349   1.234       .  S
O339       Mg358   2.161       .  S
O340       Mg352   2.314       .  S
Mg341       O357   2.312       .  S
O342       Mg358   2.245       .  S
H343        C348   1.081   1_565  S
O344       Mg352   2.157       .  S
O344        C347   1.237       .  S
H345        C347   1.081       .  S
H346        C349   1.081       .  S
O351       Mg358   2.290       .  S
C354        O359   1.271   1_565  A
C354        C578   1.429       .  S
O355        C356   1.273       .  A
C356        C587   1.478       .  S
C361        C607   1.488       .  S
C361        C362   1.410       .  A
C361        C366   1.403       .  A
C362        C624   1.473       .  S
C362        C363   1.404       .  A
C363        H368   1.084       .  S
C363        C364   1.405       .  A
C364        C583   1.487       .  S
C364        C365   1.415       .  A
C365        C568   1.480       .  S
C365        C366   1.406       .  A
C366        H367   1.085       .  S
C369        C636   1.496       .  S
C369        C370   1.420       .  A
C369        C374   1.409       .  A
C370        C604   1.492       .  S
C370        C371   1.408       .  A
C371        H376   1.085       .  S
C371        C372   1.407       .  A
C372        C563   1.492       .  S
C372        C373   1.415       .  A
C373        C580   1.488       .  S
C373        C374   1.410       .  A
C374        H375   1.084       .  S
O377       Mg379   2.157       .  S
O377       Mg385   2.148       .  S
O377        C412   1.236       .  S
C378        O391   1.234       .  S
C378        O415   1.267       .  A
C378        H417   1.081       .  S
Mg379       O408   2.152       .  S
Mg379       O423   2.280       .  S
Mg379       O419   2.254       .  S
Mg379       O390   2.289       .  S
O380       Mg422   2.151       .  S
O380       Mg405   2.144       .  S
O380        C401   1.237       .  S
O381        C412   1.271       .  A
O381       Mg405   2.308       .  S
C382        O384   1.275       .  A
C382        O396   1.271       .  A
C382        C555   1.480       .  S
O383        C411   1.272       .  A
O383       Mg385   2.305       .  S
O384       Mg416   2.295       .  S
Mg385       O391   2.133       .  S
Mg385       O399   2.244       .  S
Mg385       O387   2.283       .  S
C386        O424   1.265       .  A
C386        O392   1.268       .  A
C386        C543   1.423       .  S
O387        C394   1.273       .  A
H388        C401   1.081       .  S
C389        O403   1.236       .  S
C389        O404   1.271       .  A
C389        H414   1.081       .  S
O390        C413   1.267       .  A
O391       Mg405   2.163       .  S
O392       Mg422   2.276   1_565  S
C393        O406   1.271   1_545  A
C393        O398   1.282       .  A
C393        C552   1.486   1_545  S
C394        O421   1.276       .  A
C394        C567   1.483   1_655  S
Mg395       O402   2.122       .  S
Mg395       O403   2.152       .  S
Mg395       O396   2.268       .  S
Mg395       O397   2.299       .  S
Mg395       O424   2.238   1_545  S
O397        C401   1.271       .  A
O398       Mg405   2.358       .  S
O399        C418   1.266   1_655  A
O400        C420   1.278       .  A
O400       Mg416   2.336       .  S
O402       Mg416   2.158       .  S
O402        C413   1.233       .  S
O403       Mg422   2.152       .  S
O404       Mg416   2.304       .  S
Mg405       O421   2.297       .  S
O406       Mg422   2.248   1_565  S
H407        C412   1.081       .  S
O408       Mg416   2.148       .  S
O408        C411   1.238       .  S
H409        C411   1.081       .  S
H410        C413   1.081       .  S
O415       Mg422   2.290       .  S
C418        O423   1.269   1_455  A
C418        C550   1.426       .  S
O419        C420   1.272       .  A
C420        C559   1.478       .  S
O425       Mg427   2.170       .  S
O425       Mg433   2.152       .  S
O425        C460   1.236       .  S
C426        O439   1.233       .  S
C426        O463   1.267       .  A
C426        H465   1.081       .  S
Mg427       O456   2.156       .  S
Mg427       O471   2.296       .  S
Mg427       O467   2.269       .  S
Mg427       O438   2.293       .  S
O428       Mg470   2.163       .  S
O428       Mg453   2.160       .  S
O428        C449   1.238       .  S
O429        C460   1.272       .  A
O429       Mg453   2.312       .  S
C430        O432   1.275       .  A
C430        O444   1.268       .  A
C430        C564   1.472   1_655  S
O431        C459   1.271       .  A
O431       Mg433   2.304       .  S
O432       Mg464   2.309       .  S
Mg433       O439   2.131       .  S
Mg433       O447   2.228       .  S
Mg433       O435   2.272       .  S
C434        O472   1.262   1_455  A
C434        O440   1.272   1_455  A
C434        C523   1.427       .  S
O435        C442   1.271       .  A
H436        C449   1.081       .  S
C437        O451   1.236       .  S
C437        O452   1.272       .  A
C437        H462   1.081       .  S
O438        C461   1.267       .  A
O439       Mg453   2.157       .  S
O440       Mg470   2.304       .  S
C441        O454   1.273       .  A
C441        O446   1.280       .  A
C441        C539   1.479       .  S
C442        O469   1.276       .  A
C442        C536   1.489       .  S
Mg443       O450   2.123       .  S
Mg443       O451   2.149       .  S
Mg443       O444   2.272       .  S
Mg443       O445   2.302       .  S
Mg443       O472   2.214       .  S
O445        C449   1.272       .  A
O446       Mg453   2.341       .  S
O447        C466   1.264       .  A
O448        C468   1.277       .  A
O448       Mg464   2.326       .  S
O450       Mg464   2.146       .  S
O450        C461   1.233       .  S
O451       Mg470   2.158       .  S
O452       Mg464   2.311       .  S
Mg453       O469   2.317       .  S
O454       Mg470   2.263       .  S
H455        C460   1.081       .  S
O456       Mg464   2.156       .  S
O456        C459   1.237       .  S
H457        C459   1.081       .  S
H458        C461   1.081       .  S
O463       Mg470   2.294       .  S
C466        O471   1.271       .  A
C466        C527   1.428       .  S
O467        C468   1.273       .  A
C468        C531   1.476       .  S
C473        C619   1.480       .  S
C473        C474   1.411       .  A
C473        C478   1.401       .  A
C474        C639   1.483       .  S
C474        C475   1.409       .  A
C475        H480   1.084       .  S
C475        C476   1.407       .  A
C476        C551   1.484       .  S
C476        C477   1.415       .  A
C477        C532   1.490       .  S
C477        C478   1.405       .  A
C478        H479   1.084       .  S
C481        C680   1.486       .  S
C481        C482   1.418       .  A
C481        C486   1.407       .  A
C482        C724   1.491       .  S
C482        C483   1.406   1_455  A
C483        H488   1.084       .  S
C483        C484   1.406       .  A
C484        C560   1.484       .  S
C484        C485   1.414       .  A
C485        C540   1.486       .  S
C485        C486   1.404   1_655  A
C486        H487   1.084       .  S
C489        C728   1.486       .  S
C489        C490   1.414       .  A
C489        C494   1.410       .  A
C490        C664   1.492       .  S
C490        C491   1.406       .  A
C491        H496   1.085       .  S
C491        C492   1.410       .  A
C492        C535   1.488       .  S
C492        C493   1.416       .  A
C493        C591   1.492       .  S
C493        C494   1.406       .  A
C494        H495   1.085       .  S
C497        C684   1.480       .  S
C497        C498   1.414       .  A
C497        C502   1.405   1_565  A
C498        C660   1.488       .  S
C498        C499   1.404       .  A
C499        H504   1.084       .  S
C499        C500   1.405   1_565  A
C500        C556   1.480       .  S
C500        C501   1.413       .  A
C501        C588   1.487       .  S
C501        C502   1.404       .  A
C502        H503   1.084       .  S
C505        C599   1.446       .  S
C505        C506   1.408   1_565  A
C505        C510   1.408   1_454  A
C506        C631   1.449       .  S
C506        C507   1.406       .  A
C507        C611   1.445       .  S
C507        C508   1.406   1_454  A
C508        C598   1.450       .  S
C508        C509   1.409   1_545  A
C509        C630   1.445       .  S
C509        C510   1.408       .  A
C510        C618   1.449       .  S
C511        C722   1.446       .  S
C511        C512   1.408       .  A
C511        C516   1.407       .  A
C512        C678   1.449       .  S
C512        C513   1.406       .  A
C513        C658   1.443       .  S
C513        C514   1.407       .  A
C514        C715   1.448       .  S
C514        C515   1.407       .  A
C515        C671   1.448       .  S
C515        C516   1.406       .  A
C516        C654   1.445       .  S
C517        C526   1.444       .  S
C517        C518   1.406       .  A
C517        C522   1.410       .  A
C518        C575   1.447       .  S
C518        C519   1.405       .  A
C519        C546   1.446       .  S
C519        C520   1.408       .  A
C520        C530   1.446       .  S
C520        C521   1.406       .  A
C521        C574   1.446       .  S
C521        C522   1.406       .  A
C522        C547   1.448       .  S
C523        C524   1.202       .  T
C524        C525   1.407       .  S
C525        C526   1.202       .  T
C527        C528   1.203       .  T
C528        C529   1.408       .  S
C529        C530   1.203       .  T
C531        C532   1.348       .  D
C531        H533   1.086       .  S
C532        H534   1.087       .  S
C535        C536   1.354       .  D
C535        H537   1.087       .  S
C536        H538   1.086       .  S
C539        C540   1.348       .  D
C539        H541   1.087       .  S
C540        H542   1.086       .  S
C543        C544   1.199       .  T
C544        C545   1.402       .  S
C545        C546   1.201       .  T
C547        C548   1.202       .  T
C548        C549   1.405       .  S
C549        C550   1.201       .  T
C551        C552   1.351       .  D
C551        H553   1.086       .  S
C552        H554   1.086       .  S
C555        C556   1.350       .  D
C555        H557   1.086       .  S
C556        H558   1.087       .  S
C559        C560   1.347       .  D
C559        H561   1.087       .  S
C560        H562   1.086       .  S
C563        C564   1.343       .  D
C563        H565   1.088   1_455  S
C564        H566   1.085       .  S
C567        C568   1.349       .  D
C567        H569   1.087       .  S
C568        H570   1.087       .  S
C571        C572   1.203       .  T
C572        C573   1.408       .  S
C573        C574   1.203       .  T
C575        C576   1.204       .  T
C576        C577   1.409       .  S
C577        C578   1.203       .  T
C579        C580   1.341       .  D
C579        H581   1.088       .  S
C580        H582   1.086       .  S
C583        C584   1.350       .  D
C583        H585   1.087       .  S
C584        H586   1.086       .  S
C587        C588   1.348       .  D
C587        H589   1.086       .  S
C588        H590   1.087       .  S
C591        C592   1.343       .  D
C591        H593   1.087       .  S
C592        H594   1.087       .  S
C595        C596   1.202       .  T
C596        C597   1.407       .  S
C597        C598   1.203       .  T
C599        C600   1.202       .  T
C600        C601   1.404       .  S
C601        C602   1.200       .  T
C603        C604   1.354       .  D
C603        H605   1.086       .  S
C604        H606   1.086       .  S
C607        C608   1.348       .  D
C607        H609   1.086       .  S
C608        H610   1.087       .  S
C611        C612   1.202       .  T
C612        C613   1.406       .  S
C613        C614   1.202       .  T
C615        C616   1.205       .  T
C616        C617   1.411       .  S
C617        C618   1.205       .  T
C619        C620   1.347       .  D
C619        H621   1.087       .  S
C620        H622   1.087       .  S
C623        C624   1.343       .  D
C623        H625   1.087       .  S
C624        H626   1.087       .  S
C627        C628   1.202   1_545  T
C628        C629   1.406       .  S
C629        C630   1.202       .  T
C631        C632   1.204       .  T
C632        C633   1.409       .  S
C633        C634   1.204   1_545  T
C635        C636   1.352       .  D
C635        H637   1.086       .  S
C636        H638   1.086       .  S
C639        C640   1.348       .  D
C639        H641   1.087       .  S
C640        H642   1.086       .  S
C643        C644   1.349       .  D
C643        H645   1.086       .  S
C644        H646   1.086       .  S
C647        C648   1.345       .  D
C647        H649   1.087       .  S
C648        H650   1.087       .  S
C651        C652   1.202       .  T
C652        C653   1.406       .  S
C653        C654   1.203       .  T
C655        C656   1.200       .  T
C656        C657   1.404       .  S
C657        C658   1.201       .  T
C659        C660   1.349       .  D
C659        H661   1.086       .  S
C660        H662   1.087       .  S
C663        C664   1.344       .  D
C663        H665   1.087       .  S
C664        H666   1.087       .  S
C667        C668   1.348       .  D
C667        H669   1.086       .  S
C668        H670   1.087       .  S
C671        C672   1.202       .  T
C672        C673   1.404       .  S
C673        C674   1.201       .  T
C675        C676   1.202       .  T
C676        C677   1.406       .  S
C677        C678   1.203       .  T
C679        C680   1.350       .  D
C679        H681   1.087       .  S
C680        H682   1.086       .  S
C683        C684   1.349       .  D
C683        H685   1.087       .  S
C684        H686   1.087       .  S
C687        C688   1.350       .  D
C687        H689   1.086       .  S
C688        H690   1.087       .  S
C691        C692   1.354       .  D
C691        H693   1.087       .  S
C692        H694   1.086       .  S
C695        C696   1.350       .  D
C695        H697   1.087       .  S
C696        H698   1.086       .  S
C699        C700   1.343       .  D
C699        H701   1.087       .  S
C700        H702   1.087       .  S
C703        C704   1.339       .  D
C703        H705   1.087       .  S
C704        H706   1.088       .  S
C707        C708   1.353       .  D
C707        H709   1.086       .  S
C708        H710   1.087       .  S
C711        C712   1.353       .  D
C711        H713   1.087       .  S
C712        H714   1.086       .  S
C715        C716   1.204       .  T
C716        C717   1.409       .  S
C717        C718   1.204       .  T
C719        C720   1.203       .  T
C720        C721   1.407       .  S
C721        C722   1.203       .  T
C723        C724   1.349       .  D
C723        H725   1.086       .  S
C724        H726   1.086       .  S
C727        C728   1.355       .  D
C727        H729   1.086       .  S
C728        H730   1.087       .  S
C731        C732   1.352       .  D
C731        H733   1.086       .  S
C732        H734   1.087       .  S
C735        C736   1.349       .  D
C735        H737   1.086       .  S
C736        H738   1.087       .  S
