geometry optimzed in LAMMPS
_audit_creation_date              2020-11-30 
_audit_creation_method            'lammps2cif' 
_symmetry_space_group_name_H-M    'P1' 
_symmetry_Int_Tables_number       1 
_symmetry_cell_setting            triclinic 
loop_ 
_symmetry_equiv_pos_as_xyz 
  x,y,z 
_cell_length_a                    70.03579438 
_cell_length_b                    70.61822333079374 
_cell_length_c                    70.1406912555215 
_cell_angle_alpha                 89.85043133493181 
_cell_angle_beta                  90.44822802742081 
_cell_angle_gamma                 90.24373240349134 
loop_ 
_atom_site_label 
_atom_site_type_symbol 
_atom_site_fract_x 
_atom_site_fract_y 
_atom_site_fract_z 
_atom_site_charge 
N1          N  0.57575050  0.63591169  0.62508065    -0.25000
N2          N  0.57026319  0.62570399  0.63985797    -0.32900
C3          C  0.55627134  0.63497211  0.64896171     0.03300
C4          C  0.55288156  0.65198859  0.63951387     0.09300
C5          C  0.56556517  0.65195472  0.62442416    -0.03800
H6          H  0.54962473  0.62991748  0.66188094     0.10000
H7          H  0.56812287  0.66324141  0.61431211     0.11200
Cu8        Cu  0.58452798  0.60136603  0.64840410     0.44200
Cu9        Cu  0.59832578  0.62882052  0.60770294     0.42000
Cu10       Cu  0.62591454  0.58756546  0.62024876     0.43900
N11         N  0.60417873  0.58087771  0.65652467    -0.32400
N12         N  0.61899695  0.57565337  0.64627195    -0.26700
C13         C  0.63011941  0.56412219  0.65680701    -0.02800
C14         C  0.62207229  0.56214415  0.67471248     0.09400
C15         C  0.60556714  0.57291255  0.67387124     0.03200
H16         H  0.64356342  0.55846920  0.65199775     0.10900
H17         H  0.59604205  0.57607680  0.68548337     0.10000
N18         N  0.63288589  0.60565281  0.59810863    -0.33900
N19         N  0.62277581  0.62077681  0.59356087    -0.26000
C20         C  0.63192155  0.63052697  0.57990143    -0.01300
C21         C  0.64868838  0.62114785  0.57569250     0.07300
C22         C  0.64879265  0.60539997  0.58751405     0.05400
H23         H  0.62721483  0.64401116  0.57426441     0.10500
H24         H  0.65982541  0.59479061  0.58875240     0.09400
N25         N  0.61375848  0.59660499  0.55163695    -0.25000
N26         N  0.61810963  0.58084953  0.56091531    -0.32900
C27         C  0.63028410  0.57068549  0.55052490     0.03300
C28         C  0.63386157  0.58044644  0.53392061     0.09300
C29         C  0.62334859  0.59694090  0.53506159    -0.03800
H30         H  0.63547215  0.55678226  0.55441901     0.10000
H31         H  0.62182415  0.60773387  0.52418198     0.11200
Cu32       Cu  0.60564263  0.57140197  0.58561758     0.44200
Cu33       Cu  0.59280949  0.61519301  0.56065607     0.42000
Cu34       Cu  0.56321074  0.59419472  0.59808657     0.43900
N35         N  0.58712550  0.55998743  0.60513906    -0.32400
N36         N  0.57073523  0.56812564  0.60916511    -0.26700
C37         C  0.56043268  0.55640074  0.62019080    -0.02800
C38         C  0.57097824  0.54012441  0.62330581     0.09400
C39         C  0.58787883  0.54292104  0.61361630     0.03200
H40         H  0.54621507  0.55937028  0.62526416     0.10900
H41         H  0.59938817  0.53289945  0.61195792     0.10000
N42         N  0.55785283  0.61986649  0.58496405    -0.33900
N43         N  0.56849699  0.62775409  0.57160154    -0.26000
C44         C  0.55991264  0.64370510  0.56550019    -0.01300
C45         C  0.54300088  0.64579465  0.57539594     0.07300
C46         C  0.54230262  0.63049450  0.58769253     0.05400
H47         H  0.56504137  0.65249098  0.55395180     0.10500
H48         H  0.53109643  0.62701501  0.59764598     0.09400
N49         N  0.14113671  0.11641545  0.09405853    -0.25000
N50         N  0.12887492  0.12903718  0.08740473    -0.32900
C51         C  0.13745173  0.13948418  0.07384675     0.03300
C52         C  0.15596513  0.13303461  0.07185919     0.09300
C53         C  0.15771619  0.11833538  0.08480232    -0.03800
H54         H  0.13098480  0.15147424  0.06670619     0.10000
H55         H  0.17059172  0.11065696  0.08839636     0.11200
Cu56       Cu  0.10234914  0.13369497  0.09926574     0.44200
Cu57       Cu  0.13684887  0.09991726  0.11804194     0.42000
Cu58       Cu  0.09306833  0.10752704  0.14267857     0.43900
N59         N  0.07968105  0.13919787  0.11713949    -0.32400
N60         N  0.07630359  0.12955966  0.13293916    -0.26700
C61         C  0.06338069  0.13889964  0.14332378    -0.02800
C62         C  0.05851538  0.15536028  0.13373761     0.09400
C63         C  0.06893763  0.15491779  0.11704822     0.03200
H64         H  0.05920099  0.13482583  0.15758190     0.10900
H65         H  0.07032125  0.16623149  0.10671292     0.10000
N66         N  0.11504609  0.09127956  0.15359993    -0.33900
N67         N  0.13136319  0.08870164  0.14470257    -0.26000
C68         C  0.14354709  0.07961573  0.15644006    -0.01300
C69         C  0.13440632  0.07627096  0.17359097     0.07300
C70         C  0.11633478  0.08386075  0.17120221     0.05400
H71         H  0.15810472  0.07620559  0.15286128     0.10500
H72         H  0.10528294  0.08493507  0.18182524     0.09400
N73         N  0.88086596  0.56695941  0.43540945    -0.25000
N74         N  0.87187569  0.55558905  0.42334184    -0.32900
C75         C  0.85524842  0.55004452  0.43096559     0.03300
C76         C  0.85359355  0.55803985  0.44890197     0.09300
C77         C  0.87017456  0.56873158  0.45116455    -0.03800
H78         H  0.84518853  0.54082305  0.42377503     0.10000
H79         H  0.87452132  0.57682958  0.46352429     0.11200
Cu80       Cu  0.88256386  0.54624623  0.39765072     0.44200
Cu81       Cu  0.90736995  0.57951301  0.43022455     0.42000
Cu82       Cu  0.92856788  0.56382802  0.38656914     0.43900
N83         N  0.89806348  0.53655406  0.37474598    -0.32400
N84         N  0.91530592  0.54309399  0.37097684    -0.26700
C85         C  0.92287818  0.53306541  0.35674953    -0.02800
C86         C  0.90971328  0.51955201  0.35122411     0.09400
C87         C  0.89406256  0.52215450  0.36283485     0.03200
H88         H  0.93714547  0.53508643  0.35128272     0.10900
H89         H  0.88124320  0.51356943  0.36332994     0.10000
N90         N  0.94121918  0.58312507  0.40439716    -0.33900
N91         N  0.93370199  0.58927353  0.42043196    -0.26000
C92         C  0.94585274  0.60188902  0.42838046    -0.01300
C93         C  0.96178343  0.60344528  0.41679080     0.07300
C94         C  0.95824410  0.59138004  0.40173633     0.05400
H95         H  0.94337064  0.60919576  0.44166449     0.10500
H96         H  0.96721297  0.58898294  0.38949269     0.09400
N97         N  0.61102177  0.36785338  0.90974306    -0.25000
N98         N  0.61559740  0.38301479  0.89964381    -0.32900
C99         C  0.62791507  0.39369575  0.90971971     0.03300
C100        C  0.63141122  0.38481530  0.92696184     0.09300
C101        C  0.62056086  0.36838718  0.92644576    -0.03800
H102        H  0.63326929  0.40727823  0.90508380     0.10000
H103        H  0.61874859  0.35821044  0.93785123     0.11200
Cu104      Cu  0.60350875  0.39014869  0.87369500     0.44200
Cu105      Cu  0.58995930  0.34867778  0.90171246     0.42000
Cu106      Cu  0.56497876  0.36118493  0.85786504     0.43900
N107        N  0.58683567  0.39684791  0.85028918    -0.32400
N108        N  0.57259016  0.38603483  0.84435386    -0.26700
C109        C  0.56251775  0.39541439  0.83100983    -0.02800
C110        C  0.57068947  0.41316037  0.82857910     0.09400
C111        C  0.58623061  0.41344483  0.84091946     0.03200
H112        H  0.54949434  0.39011091  0.82454281     0.10900
H113        H  0.59532621  0.42544046  0.84420691     0.10000
N114        N  0.55678889  0.33948610  0.87581697    -0.33900
N115        N  0.56582548  0.33466197  0.89168721    -0.26000
C116        C  0.55593352  0.32076182  0.90035283    -0.01300
C117        C  0.53981776  0.31671206  0.88942828     0.07300
C118        C  0.54092342  0.32894006  0.87400658     0.05400
H119        H  0.56006271  0.31440447  0.91378411     0.10500
H120        H  0.53053879  0.33076804  0.86267545     0.09400
N121        N  0.89868891  0.35026808  0.09437574    -0.25000
N122        N  0.88730662  0.34578709  0.07996326    -0.32900
C123        C  0.89600586  0.33281814  0.06907909     0.03300
C124        C  0.91381035  0.32903518  0.07697321     0.09300
C125        C  0.91490031  0.34030035  0.09307708    -0.03800
H126        H  0.89010158  0.32725991  0.05593889     0.10000
H127        H  0.92713511  0.34224185  0.10238381     0.11200
Cu128      Cu  0.86209991  0.35991099  0.07394933     0.44200
Cu129      Cu  0.89338203  0.37195223  0.11328529     0.42000
Cu130      Cu  0.85335392  0.40200766  0.10204940     0.43900
N131        N  0.84062973  0.37918881  0.06805322    -0.32400
N132        N  0.83770384  0.39474204  0.07803270    -0.26700
C133        C  0.82431988  0.40523911  0.06919018    -0.02800
C134        C  0.81845197  0.39577242  0.05290116     0.09400
C135        C  0.82904812  0.37927510  0.05270432     0.03200
H136        H  0.81974992  0.41903764  0.07393849     0.10900
H137        H  0.82925448  0.36869451  0.04158320     0.10000
N138        N  0.87239491  0.40728485  0.12408476    -0.33900
N139        N  0.88716752  0.39637743  0.12808920    -0.26000
C140        C  0.89772271  0.40456485  0.14188963    -0.01300
C141        C  0.88911804  0.42142401  0.14689786     0.07300
C142        C  0.87304733  0.42263193  0.13533479     0.05400
H143        H  0.91092647  0.39889823  0.14740251     0.10500
H144        H  0.86311735  0.43429516  0.13438231     0.09400
N145        N  0.11708807  0.87055343  0.32533528    -0.25000
N146        N  0.13123159  0.87474566  0.33717153    -0.32900
C147        C  0.14330596  0.88678977  0.32858641     0.03300
C148        C  0.13639591  0.89043917  0.31044583     0.09300
C149        C  0.11968915  0.87997329  0.30891043    -0.03800
H150        H  0.15648879  0.89186228  0.33490594     0.10000
H151        H  0.11074121  0.87831917  0.29638034     0.11200
Cu152      Cu  0.13532716  0.86183539  0.36314476     0.44200
Cu153      Cu  0.09679011  0.84993269  0.33072396     0.42000
Cu154      Cu  0.10984096  0.81807052  0.36908566     0.43900
N155        N  0.14056334  0.84319923  0.38506917    -0.32400
N156        N  0.13205716  0.82660207  0.38656654    -0.26700
C157        C  0.14016703  0.81690532  0.40092023    -0.02800
C158        C  0.15429725  0.82807288  0.40928684     0.09400
C159        C  0.15402945  0.84472444  0.39866402     0.03200
H160        H  0.13648208  0.80243486  0.40422370     0.10900
H161        H  0.16291978  0.85712180  0.40024215     0.10000
N162        N  0.08658858  0.81396773  0.35131791    -0.33900
N163        N  0.08153712  0.82575176  0.33754024    -0.26000
C164        C  0.06610749  0.81872747  0.32847243    -0.01300
C165        C  0.06125797  0.80161912  0.33691484     0.07300
C166        C  0.07454736  0.79913859  0.35141420     0.05400
H167        H  0.05908190  0.82557442  0.31653804     0.10500
H168        H  0.07585804  0.78716287  0.36096864     0.09400
N169        N  0.31905800  0.78084252  0.65830152    -0.25000
N170        N  0.30685016  0.77280816  0.64632927    -0.32900
C171        C  0.31327198  0.75540940  0.64193806     0.03300
C172        C  0.33038497  0.75246660  0.65159818     0.09300
C173        C  0.33345478  0.76888015  0.66191191    -0.03800
H174        H  0.30628006  0.74588077  0.63202700     0.10000
H175        H  0.34529737  0.77200686  0.67139874     0.11200
Cu176      Cu  0.28262295  0.78661421  0.63618265     0.44200
Cu177      Cu  0.31643178  0.80789759  0.66886546     0.42000
Cu178      Cu  0.28106035  0.83729772  0.64775909     0.43900
N179        N  0.26097079  0.80495999  0.62769024    -0.32400
N180        N  0.26118106  0.82341709  0.63095376    -0.26700
C181        C  0.24535547  0.83120253  0.62344795    -0.02800
C182        C  0.23454322  0.81697261  0.61532120     0.09400
C183        C  0.24477086  0.80050235  0.61824118     0.03200
H184        H  0.24167586  0.84603310  0.62444809     0.10900
H185        H  0.24077854  0.78636301  0.61378001     0.10000
N186        N  0.29753955  0.84579630  0.67071288    -0.33900
N187        N  0.31045791  0.83468080  0.67866200    -0.26000
C188        C  0.31621163  0.84226166  0.69526246    -0.01300
C189        C  0.30626461  0.85890186  0.69804170     0.07300
C190        C  0.29467775  0.86080629  0.68207348     0.05400
H191        H  0.32587259  0.83541274  0.70519050     0.10500
H192        H  0.28359869  0.87122750  0.67983284     0.09400
N193        N  0.63825374  0.34627875  0.88033784    -0.25000
N194        N  0.62788847  0.33201950  0.88682305    -0.32900
C195        C  0.63772039  0.32302469  0.90058551     0.03300
C196        C  0.65524923  0.33190794  0.90272870     0.09300
C197        C  0.65498131  0.34675396  0.88982103    -0.03800
H198        H  0.63303446  0.31006493  0.90737132     0.10000
H199        H  0.66680158  0.35594851  0.88615820     0.11200
Cu200      Cu  0.60340100  0.32216897  0.87364758     0.44200
Cu201      Cu  0.63140208  0.36140935  0.85605834     0.42000
Cu202      Cu  0.59485478  0.34061226  0.82622800     0.43900
N203        N  0.58396470  0.31057560  0.85474316    -0.32400
N204        N  0.58120651  0.31708931  0.83728467    -0.26700
C205        C  0.56908067  0.30551950  0.82802977    -0.02800
C206        C  0.56383584  0.29099100  0.84026727     0.09400
C207        C  0.57355566  0.29473683  0.85713234     0.03200
H208        H  0.56507641  0.30723377  0.81321197     0.10900
H209        H  0.57331759  0.28654148  0.87016969     0.10000
N210        N  0.61152393  0.36333075  0.81795485    -0.33900
N211        N  0.62492100  0.37088887  0.82893971    -0.26000
C212        C  0.63444047  0.38402693  0.81893493    -0.01300
C213        C  0.62669955  0.38486050  0.80078191     0.07300
C214        C  0.61209176  0.37159696  0.80068973     0.05400
H215        H  0.64660496  0.39196471  0.82437805     0.10500
H216        H  0.60325714  0.36746938  0.78866407     0.09400
N217        N  0.87350888  0.32646204  0.13325003    -0.25000
N218        N  0.86996363  0.31782493  0.11690987    -0.32900
C219        C  0.87862090  0.30083821  0.11710350     0.03300
C220        C  0.88785975  0.29859451  0.13452597     0.09300
C221        C  0.88430562  0.31519424  0.14430242    -0.03800
H222        H  0.87701742  0.29031687  0.10600981     0.10000
H223        H  0.88836240  0.31855547  0.15877684     0.11200
Cu224      Cu  0.85019387  0.32778116  0.09717586     0.44200
Cu225      Cu  0.86139446  0.35179591  0.14141826     0.42000
Cu226      Cu  0.82365169  0.36944546  0.11207192     0.43900
N227        N  0.82471115  0.33654474  0.08484289    -0.32400
N228        N  0.81488406  0.35134367  0.09067304    -0.26700
C229        C  0.79732006  0.35071723  0.08289995    -0.02800
C230        C  0.79585108  0.33464078  0.07172454     0.09400
C231        C  0.81366238  0.32619293  0.07306747     0.03200
H232        H  0.78591076  0.36022087  0.08673853     0.10900
H233        H  0.81790126  0.31272633  0.06718672     0.10000
N234        N  0.83166833  0.38199391  0.13741156    -0.33900
N235        N  0.84549864  0.37533967  0.14838666    -0.26000
C236        C  0.84533488  0.38449993  0.16513653    -0.01300
C237        C  0.83053991  0.39745683  0.16476389     0.07300
C238        C  0.82229721  0.39557061  0.14684813     0.05400
H239        H  0.85421914  0.38078197  0.17725560     0.10500
H240        H  0.80967440  0.40262592  0.14146050     0.09400
N241        N  0.81831180  0.71441584  0.28437207    -0.25000
N242        N  0.80809495  0.72020836  0.29898721    -0.32900
C243        C  0.81547442  0.73638179  0.30581018     0.03300
C244        C  0.83124019  0.74118645  0.29511494     0.09300
C245        C  0.83257442  0.72694593  0.28153234    -0.03800
H246        H  0.81059667  0.74322283  0.31865182     0.10000
H247        H  0.84357244  0.72528698  0.27093924     0.11200
Cu248      Cu  0.78719824  0.70466151  0.31218909     0.44200
Cu249      Cu  0.81425115  0.68808764  0.27141730     0.42000
Cu250      Cu  0.78958307  0.65578061  0.30407466     0.43900
N251        N  0.77120873  0.68553980  0.32736072    -0.32400
N252        N  0.77250089  0.66710087  0.32483890    -0.26700
C253        C  0.76007663  0.65827749  0.33639474    -0.02800
C254        C  0.75049144  0.67195575  0.34664549     0.09400
C255        C  0.75802839  0.68907209  0.34061483     0.03200
H256        H  0.75763514  0.64314247  0.33665700     0.10900
H257        H  0.75416917  0.70309500  0.34536656     0.10000
N258        N  0.80163454  0.64783033  0.27867024    -0.33900
N259        N  0.80946719  0.65936720  0.26602994    -0.26000
C260        C  0.81365443  0.64929362  0.25029039    -0.01300
C261        C  0.80841769  0.63057749  0.25347022     0.07300
C262        C  0.80085894  0.63026944  0.27154568     0.05400
H263        H  0.82004188  0.65512579  0.23755393     0.10500
H264        H  0.79445370  0.61827494  0.27873713     0.09400
N265        N  0.38359016  0.12018757  0.90121029    -0.25000
N266        N  0.39402983  0.11708844  0.88597163    -0.32900
C267        C  0.41091625  0.12598457  0.88818225     0.03300
C268        C  0.41121269  0.13485355  0.90588035     0.09300
C269        C  0.39354505  0.13078411  0.91364140    -0.03800
H270        H  0.42224230  0.12548869  0.87782086     0.10000
H271        H  0.38851829  0.13426092  0.92771797     0.11200
Cu272      Cu  0.38603708  0.09791195  0.86493264     0.44200
Cu273      Cu  0.35732922  0.10816748  0.90582629     0.42000
Cu274      Cu  0.34534954  0.06765607  0.87776156     0.43900
N275        N  0.37828449  0.07335313  0.85048953    -0.32400
N276        N  0.36401218  0.06213349  0.85552321    -0.26700
C277        C  0.36470375  0.04618276  0.84512342    -0.02800
C278        C  0.38021842  0.04725433  0.83296863     0.09400
C279        C  0.38833304  0.06485100  0.83669540     0.03200
H280        H  0.35530832  0.03418679  0.84724027     0.10900
H281        H  0.40111372  0.07081064  0.83048917     0.10000
N282        N  0.32974529  0.07608719  0.90136421    -0.33900
N283        N  0.33396999  0.09146849  0.91118693    -0.26000
C284        C  0.32262275  0.09249795  0.92645063    -0.01300
C285        C  0.31064753  0.07687810  0.92647184     0.07300
C286        C  0.31559268  0.06676129  0.91029016     0.05400
H287        H  0.32419680  0.10298372  0.93757596     0.10500
H288        H  0.31017921  0.05317136  0.90589083     0.09400
N289        N  0.42261993  0.85719761  0.57265757    -0.25000
N290        N  0.42936919  0.86478157  0.58857144    -0.32900
C291        C  0.44695502  0.85798315  0.59202012     0.03300
C292        C  0.45152759  0.84549680  0.57760712     0.09300
C293        C  0.43569893  0.84524503  0.56565688    -0.03800
H294        H  0.45598449  0.86235413  0.60380968     0.10000
H295        H  0.43426686  0.83786975  0.55221780     0.11200
Cu296      Cu  0.41588604  0.88600591  0.60360218     0.44200
Cu297      Cu  0.39738460  0.86551787  0.55946076     0.42000
Cu298      Cu  0.37500623  0.90646545  0.58023690     0.43900
N299        N  0.40260417  0.91031475  0.61307594    -0.32400
N300        N  0.38794789  0.91810055  0.60409091    -0.26700
C301        C  0.38408728  0.93487923  0.61214111    -0.02800
C302        C  0.39686985  0.93775045  0.62698815     0.09400
C303        C  0.40834168  0.92184327  0.62725617     0.03200
H304        H  0.37310204  0.94448656  0.60721206     0.10900
H305        H  0.42064834  0.91935094  0.63633452     0.10000
N306        N  0.36556337  0.89376436  0.55535087    -0.33900
N307        N  0.37376290  0.87886627  0.54759178    -0.26000
C308        C  0.36516533  0.87515339  0.53078432    -0.01300
C309        C  0.35082549  0.88835144  0.52785638     0.07300
C310        C  0.35150106  0.89987227  0.54378267     0.05400
H311        H  0.36934215  0.86390957  0.52125651     0.10500
H312        H  0.34305974  0.91238924  0.54635783     0.09400
N313        N  0.32817443  0.08129624  0.83319240    -0.25000
N314        N  0.34053722  0.08723055  0.82035827    -0.32900
C315        C  0.33864571  0.07655903  0.80460547     0.03300
C316        C  0.32420508  0.06342997  0.80765321     0.09300
C317        C  0.31804134  0.06677571  0.82601434    -0.03800
H318        H  0.34615379  0.07916444  0.79142479     0.10000
H319        H  0.30632084  0.05992841  0.83329113     0.11200
Cu320      Cu  0.35692002  0.11144344  0.82402342     0.44200
Cu321      Cu  0.32266535  0.09559746  0.85804250     0.42000
Cu322      Cu  0.34820442  0.13883489  0.86734133     0.43900
N323        N  0.37026994  0.13683381  0.83065493    -0.32400
N324        N  0.36779180  0.14629385  0.84667088    -0.26700
C325        C  0.37737974  0.16277368  0.84566554    -0.02800
C326        C  0.38607802  0.16397213  0.82799565     0.09400
C327        C  0.38128999  0.14716007  0.81896116     0.03200
H328        H  0.37717494  0.17340251  0.85672348     0.10900
H329        H  0.38439618  0.14320447  0.80444465     0.10000
N330        N  0.32317586  0.13140883  0.88101208    -0.33900
N331        N  0.31396707  0.11541950  0.87754123    -0.26000
C332        C  0.29680660  0.11594329  0.88586543    -0.01300
C333        C  0.29495205  0.13319118  0.89493241     0.07300
C334        C  0.31205197  0.14260215  0.89167840     0.05400
H335        H  0.28586311  0.10525181  0.88393418     0.10500
H336        H  0.31572571  0.15693855  0.89572804     0.09400
N337        N  0.79611565  0.50018043  0.16992094    -0.01200
C338        C  0.78508399  0.48894080  0.15836650     0.01400
C339        C  0.76800366  0.49797887  0.15425707    -0.21500
C340        C  0.76835545  0.51510790  0.16339255    -0.21700
C341        C  0.78568000  0.51609598  0.17270717     0.01300
H342        H  0.75649236  0.49262105  0.14537433     0.15100
H343        H  0.75725280  0.52571857  0.16320992     0.15100
N344        N  0.71068637  0.41607251  0.05467898    -0.01200
C345        C  0.71973649  0.42610695  0.06875041     0.01400
C346        C  0.71545319  0.44518320  0.06686797    -0.21500
C347        C  0.70350365  0.44709070  0.05142415    -0.21700
C348        C  0.70068910  0.42912485  0.04438891     0.01300
H349        H  0.72064290  0.45658289  0.07583144     0.15100
H350        H  0.69753767  0.46013008  0.04590967     0.15100
N351        N  0.53404901  0.21631938  0.93894054    -0.01200
C352        C  0.54559648  0.23001423  0.94652007     0.01400
C353        C  0.54031768  0.23370793  0.96515270    -0.21500
C354        C  0.52493863  0.22235566  0.96916945    -0.21700
C355        C  0.52143695  0.21201807  0.95291962     0.01300
H356        H  0.54685114  0.24390209  0.97471305     0.15100
H357        H  0.51673337  0.22222870  0.98217877     0.15100
N358        N  0.66356318  0.29453975  0.00702968    -0.01200
C359        C  0.64908925  0.28403294  0.99930598     0.01400
C360        C  0.64930959  0.26591228  0.00694332    -0.21500
C361        C  0.66423915  0.26509460  0.01969751    -0.21700
C362        C  0.67254734  0.28278069  0.01956371     0.01300
H363        H  0.63993517  0.25428889  0.00308281     0.15100
H364        H  0.66879305  0.25286759  0.02784707     0.15100
N365        N  0.91338102  0.54453976  0.23228894    -0.01200
C366        C  0.92248883  0.55876070  0.24196082     0.01400
C367        C  0.94208438  0.55658103  0.24068275    -0.21500
C368        C  0.94532544  0.54070891  0.23001658    -0.21700
C369        C  0.92761468  0.53375118  0.22497522     0.01300
H370        H  0.95290855  0.56566200  0.24696255     0.15100
H371        H  0.95907053  0.53496024  0.22620125     0.15100
N372        N  0.96218168  0.68839106  0.31018378    -0.01200
C373        C  0.94669418  0.67848598  0.30360622     0.01400
C374        C  0.93635069  0.68964829  0.29094885    -0.21500
C375        C  0.94543009  0.70686655  0.28978325    -0.21700
C376        C  0.96112759  0.70560175  0.30159566     0.01300
H377        H  0.92404861  0.68529948  0.28258066     0.15100
H378        H  0.94124208  0.71884571  0.28108025     0.15100
N379        N  0.05785234  0.71771204  0.41009918    -0.01200
C380        C  0.07199362  0.73064185  0.41371636     0.01400
C381        C  0.08779110  0.72143146  0.42132972    -0.21500
C382        C  0.08333907  0.70256091  0.42270497    -0.21700
C383        C  0.06507784  0.70068953  0.41563515     0.01300
H384        H  0.10055938  0.72805024  0.42707551     0.15100
H385        H  0.09206846  0.69158162  0.42905080     0.15100
N386        N  0.12199408  0.82586099  0.51608709    -0.01200
C387        C  0.10562496  0.82267295  0.50581125     0.01400
C388        C  0.09088738  0.81829181  0.51823988    -0.21500
C389        C  0.09822234  0.81872334  0.53644726    -0.21700
C390        C  0.11715587  0.82353046  0.53467782     0.01300
H391        H  0.07659613  0.81375201  0.51436834     0.15100
H392        H  0.09078101  0.81516600  0.54944427     0.15100
N393        N  0.47728208  0.16416671  0.82186733    -0.01200
C394        C  0.46555500  0.15205930  0.81195205     0.01400
C395        C  0.46131043  0.15969003  0.79420070    -0.21500
C396        C  0.47058690  0.17672036  0.79290394    -0.21700
C397        C  0.48003315  0.17917602  0.80998387     0.01300
H398        H  0.45279193  0.15314693  0.78306088     0.15100
H399        H  0.47060205  0.18621683  0.78076907     0.15100
N400        N  0.39973258  0.05103969  0.72856411    -0.01200
C401        C  0.40582489  0.06673605  0.73836939     0.01400
C402        C  0.41927576  0.07643062  0.72764220    -0.21500
C403        C  0.42172767  0.06665092  0.71101234    -0.21700
C404        C  0.40956753  0.05136709  0.71190334     0.01300
H405        H  0.42757955  0.08860592  0.73216422     0.15100
H406        H  0.43170593  0.06997412  0.69977530     0.15100
N407        N  0.22321091  0.91546807  0.54266582    -0.01200
C408        C  0.23777755  0.92437320  0.55223550     0.01400
C409        C  0.24305417  0.94059363  0.54233911    -0.21500
C410        C  0.23172247  0.94170445  0.52632162    -0.21700
C411        C  0.21974210  0.92625002  0.52697308     0.01300
H412        H  0.25392578  0.95073901  0.54651764     0.15100
H413        H  0.23234985  0.95241462  0.51528059     0.15100
N414        N  0.28568995  0.97916596  0.68806222    -0.01200
C415        C  0.27657915  0.96651049  0.67634373     0.01400
C416        C  0.25796430  0.96379464  0.68238112    -0.21500
C417        C  0.25543536  0.97475003  0.69825695    -0.21700
C418        C  0.27249764  0.98401755  0.70131057     0.01300
H419        H  0.24724615  0.95485902  0.67571949     0.15100
H420        H  0.24261097  0.97580255  0.70668698     0.15100
N421        N  0.05105779  0.84450196  0.37303374    -0.25000
N422        N  0.06110578  0.83998582  0.38839057    -0.32900
C423        C  0.05168147  0.82672463  0.39834223     0.03300
C424        C  0.03463160  0.82272313  0.38904535     0.09300
C425        C  0.03481812  0.83417242  0.37288749    -0.03800
H426        H  0.05688207  0.82064322  0.41154648     0.10000
H427        H  0.02369669  0.83547977  0.36220792     0.11200
Cu428      Cu  0.08620070  0.85313398  0.39668757     0.44200
Cu429      Cu  0.05961854  0.86565021  0.35408413     0.42000
Cu430      Cu  0.10281272  0.89174757  0.36812805     0.43900
N431        N  0.10932691  0.86976500  0.40429819    -0.32400
N432        N  0.11559640  0.88392427  0.39369489    -0.26700
C433        C  0.12982302  0.89282411  0.40306089    -0.02800
C434        C  0.13255359  0.88390904  0.42050825     0.09400
C435        C  0.11933080  0.86927487  0.42072331     0.03200
H436        H  0.13723289  0.90520325  0.39773568     0.10900
H437        H  0.11650345  0.85955245  0.43232251     0.10000
N438        N  0.08565772  0.89885011  0.34499625    -0.33900
N439        N  0.07022493  0.88930235  0.33969716    -0.26000
C440        C  0.06151711  0.89884069  0.32551289    -0.01300
C441        C  0.07162103  0.91534242  0.32188458     0.07300
C442        C  0.08699006  0.91471285  0.33443465     0.05400
H443        H  0.04818978  0.89449823  0.31889215     0.10500
H444        H  0.09757267  0.92567874  0.33681248     0.09400
N445        N  0.65190566  0.49094101  0.80431608    -0.01200
C446        C  0.66075542  0.48054407  0.81825386     0.01400
C447        C  0.68013627  0.48460775  0.81856228    -0.21500
C448        C  0.68353148  0.49764972  0.80450512    -0.21700
C449        C  0.66611016  0.50133555  0.79614156     0.01300
H450        H  0.69080745  0.47821000  0.82775679     0.15100
H451        H  0.69725503  0.50343037  0.80046698     0.15100
N452        N  0.73530084  0.41866375  0.92652929    -0.01200
C453        C  0.72617810  0.42752735  0.91173483     0.01400
C454        C  0.73176194  0.44636605  0.91092920    -0.21500
C455        C  0.74452627  0.44936902  0.92553403    -0.21700
C456        C  0.74649113  0.43224735  0.93472981     0.01300
H457        H  0.72645699  0.45701566  0.90112644     0.15100
H458        H  0.75134313  0.46264340  0.92927562     0.15100
N459        N  0.44171802  0.64815349  0.65979232    -0.01200
C460        C  0.45060856  0.63187158  0.66568407     0.01400
C461        C  0.43703314  0.61917570  0.67244862    -0.21500
C462        C  0.41951387  0.62751403  0.67065085    -0.21700
C463        C  0.42273424  0.64504078  0.66274335     0.01300
H464        H  0.43970912  0.60542805  0.67876738     0.15100
H465        H  0.40592756  0.62157846  0.67492015     0.15100
N466        N  0.53087863  0.53934113  0.75108642    -0.01200
C467        C  0.51948083  0.55304334  0.74318195     0.01400
C468        C  0.50049831  0.54900931  0.74718864    -0.21500
C469        C  0.50003304  0.53273300  0.75784802    -0.21700
C470        C  0.51871247  0.52728776  0.76015644     0.01300
H471        H  0.48817604  0.55713284  0.74269819     0.15100
H472        H  0.48749122  0.52575265  0.76347481     0.15100
N473        N  0.42373478  0.74397460  0.56156914    -0.01200
C474        C  0.41423790  0.75891483  0.55352155     0.01400
C475        C  0.42422440  0.76537889  0.53775895    -0.21500
C476        C  0.44016424  0.75432403  0.53599022    -0.21700
C477        C  0.43945706  0.74144469  0.55069429     0.01300
H478        H  0.41987229  0.77649032  0.52801187     0.15100
H479        H  0.45102157  0.75548887  0.52515306     0.15100
N480        N  0.27381770  0.79965721  0.49869765    -0.01200
C481        C  0.28672204  0.79118390  0.51064719     0.01400
C482        C  0.27979016  0.77373942  0.51658299    -0.21500
C483        C  0.26219527  0.77124824  0.50825479    -0.21700
C484        C  0.25903080  0.78718131  0.49739022     0.01300
H485        H  0.28701896  0.76371657  0.52581423     0.15100
H486        H  0.25290314  0.75905140  0.50966941     0.15100
N487        N  0.78619762  0.29761280  0.97457219    -0.01200
C488        C  0.80060279  0.28724450  0.98262108     0.01400
C489        C  0.79871272  0.26838916  0.97745058    -0.21500
C490        C  0.78283974  0.26691276  0.96599573    -0.21700
C491        C  0.77562765  0.28493053  0.96437825     0.01300
H492        H  0.80772991  0.25679958  0.98203942     0.15100
H493        H  0.77705932  0.25410963  0.95972431     0.15100
N494        N  0.91736092  0.21878367  0.04649461    -0.01200
C495        C  0.90510684  0.22915617  0.03547908     0.01400
C496        C  0.90805585  0.22514169  0.01639882    -0.21500
C497        C  0.92245761  0.21203260  0.01551600    -0.21700
C498        C  0.92773106  0.20829369  0.03408892     0.01300
H499        H  0.90041006  0.23112955  0.00435865     0.15100
H500        H  0.92832874  0.20580819  0.00276997     0.15100
N501        N  0.16612156  0.00152065  0.30235400    -0.01200
C502        C  0.17570389  0.99311616  0.31725270     0.01400
C503        C  0.19464811  0.99901247  0.31724055    -0.21500
C504        C  0.19693985  0.01135464  0.30235461    -0.21700
C505        C  0.17934919  0.01280462  0.29368633     0.01300
H506        H  0.20578881  0.99453092  0.32701838     0.15100
H507        H  0.20998248  0.01852937  0.29831250     0.15100
N508        N  0.24931520  0.90756265  0.41249003    -0.01200
C509        C  0.24086672  0.91607211  0.39698436     0.01400
C510        C  0.25345131  0.92913772  0.38915360    -0.21500
C511        C  0.26990411  0.92881504  0.39980863    -0.21700
C512        C  0.26708370  0.91546798  0.41380228     0.01300
H513        H  0.25064726  0.93847003  0.37719375     0.15100
H514        H  0.28245626  0.93755208  0.39776005     0.15100
N515        N  0.95990779  0.16925359  0.17024001    -0.01200
C516        C  0.96879879  0.15550813  0.18067473     0.01400
C517        C  0.96239982  0.15612153  0.19932586    -0.21500
C518        C  0.94944381  0.17064174  0.20050550    -0.21700
C519        C  0.94814345  0.17833872  0.18250031     0.01300
H520        H  0.96756926  0.14762513  0.21113615     0.15100
H521        H  0.94236774  0.17552958  0.21322635     0.15100
N522        N  0.04480911  0.04788453  0.24865522    -0.01200
C523        C  0.03424083  0.06242914  0.24117650     0.01400
C524        C  0.01519887  0.06005678  0.24594449    -0.21500
C525        C  0.01378461  0.04379430  0.25650712    -0.21700
C526        C  0.03200737  0.03675003  0.25804419     0.01300
H527        H  0.00341412  0.06898694  0.24157453     0.15100
H528        H  0.00085587  0.03760097  0.26218458     0.15100
N529        N  0.65012202  0.65432616  0.46227085    -0.01200
C530        C  0.63335487  0.65763864  0.47169244     0.01400
C531        C  0.62092385  0.66744987  0.45976632    -0.21500
C532        C  0.63005921  0.67062818  0.44289168    -0.21700
C533        C  0.64770566  0.66247279  0.44484731     0.01300
H534        H  0.60732251  0.67347439  0.46369891     0.15100
H535        H  0.62467341  0.67850930  0.43075435     0.15100
N536        N  0.56768546  0.75288506  0.56605779    -0.01200
C537        C  0.58398601  0.74314154  0.56189263     0.01400
C538        C  0.59710464  0.75542855  0.55366445    -0.21500
C539        C  0.58884073  0.77298539  0.55254268    -0.21700
C540        C  0.57098396  0.77100008  0.56025920     0.01300
H541        H  0.61069769  0.75160867  0.54754943     0.15100
H542        H  0.59493136  0.78562431  0.54625396     0.15100
N543        N  0.72980070  0.54627740  0.42371167    -0.01200
C544        C  0.74482561  0.53809987  0.41451121     0.01400
C545        C  0.74776122  0.51994466  0.42152967    -0.21500
C546        C  0.73455819  0.51676330  0.43546837    -0.21700
C547        C  0.72378768  0.53295342  0.43636934     0.01300
H548        H  0.75814805  0.50981851  0.41654756     0.15100
H549        H  0.73298464  0.50408402  0.44402059     0.15100
N550        N  0.79837284  0.46756364  0.29484507    -0.01200
C551        C  0.78856271  0.47698357  0.30864921     0.01400
C552        C  0.76937622  0.47216353  0.30772824    -0.21500
C553        C  0.76708708  0.45962935  0.29300748    -0.21700
C554        C  0.78496941  0.45700898  0.28549717     0.01300
H555        H  0.75806912  0.47788421  0.31640410     0.15100
H556        H  0.75377276  0.45359872  0.28790559     0.15100
N557        N  0.91551677  0.40827333  0.24664824    -0.01200
C558        C  0.92395435  0.39477636  0.23565427     0.01400
C559        C  0.94316896  0.39333585  0.24032118    -0.21500
C560        C  0.94689280  0.40617961  0.25442186    -0.21700
C561        C  0.92981848  0.41495014  0.25803643     0.01300
H562        H  0.95348454  0.38403520  0.23381251     0.15100
H563        H  0.96054054  0.40890774  0.26123950     0.15100
N564        N  0.99060262  0.28740379  0.16552474    -0.01200
C565        C  0.98309866  0.30198965  0.17569728     0.01400
C566        C  0.98802694  0.30015881  0.19478292    -0.21500
C567        C  0.99888082  0.28414685  0.19657145    -0.21700
C568        C  0.00038840  0.27674855  0.17850872     0.01300
H569        H  0.98357960  0.30924160  0.20632396     0.15100
H570        H  0.00485804  0.27841016  0.20962491     0.15100
N571        N  0.16455711  0.16590422  0.96587014    -0.01200
C572        C  0.15186259  0.17653778  0.97603579     0.01400
C573        C  0.15387324  0.19550166  0.97131924    -0.21500
C574        C  0.16810402  0.19686189  0.95814130    -0.21700
C575        C  0.17428994  0.17867538  0.95500443     0.01300
H576        H  0.14595521  0.20721545  0.97721885     0.15100
H577        H  0.17371169  0.20974754  0.95190333     0.15100
N578        N  0.03559126  0.24562853  0.03960361    -0.01200
C579        C  0.04901616  0.23628414  0.02919489     0.01400
C580        C  0.04760947  0.24164209  0.01021148    -0.21500
C581        C  0.03307104  0.25454258  0.00872125    -0.21700
C582        C  0.02613297  0.25682849  0.02686173     0.01300
H583        H  0.05624102  0.23650920  0.99859469     0.15100
H584        H  0.02809568  0.26147906  0.99584760     0.15100
N585        N  0.48115151  0.78551359  0.66890049    -0.01200
C586        C  0.47182016  0.79816373  0.68026493     0.01400
C587        C  0.46767440  0.78971574  0.69761430    -0.21500
C588        C  0.47452402  0.77155239  0.69710149    -0.21700
C589        C  0.48267661  0.76940862  0.67947351     0.01300
H590        H  0.46041302  0.79620523  0.70948005     0.15100
H591        H  0.47383247  0.76112119  0.70840581     0.15100
N592        N  0.41719353  0.92565984  0.74568771    -0.01200
C593        C  0.42868515  0.91465661  0.73451271     0.01400
C594        C  0.44739713  0.92097483  0.73598557    -0.21500
C595        C  0.44762463  0.93617662  0.74809736    -0.21700
C596        C  0.42908324  0.93867503  0.75389010     0.01300
H597        H  0.45964318  0.91517144  0.72875042     0.15100
H598        H  0.45993276  0.94463348  0.75209319     0.15100
N599        N  0.30252657  0.95173950  0.81879231    -0.01200
C600        C  0.29674681  0.95962063  0.83556587     0.01400
C601        C  0.28494693  0.94694111  0.84509209    -0.21500
C602        C  0.28325666  0.93102387  0.83406284    -0.21700
C603        C  0.29420434  0.93432370  0.81822912     0.01300
H604        H  0.27711994  0.94961257  0.85805308     0.15100
H605        H  0.27453508  0.91867787  0.83696055     0.15100
N606        N  0.21082559  0.04069952  0.92249124    -0.01200
C607        C  0.21862039  0.02973201  0.90847033     0.01400
C608        C  0.21425342  0.01080852  0.91180010    -0.21500
C609        C  0.20350034  0.00987685  0.92793224    -0.21700
C610        C  0.20149030  0.02821696  0.93403315     0.01300
H611        H  0.21886723  0.99878611  0.90349511     0.15100
H612        H  0.19786642  0.99721107  0.93458805     0.15100
N613        N  0.11844967  0.06898100  0.07980305    -0.25000
N614        N  0.11203972  0.08332318  0.06952746    -0.32900
C615        C  0.12180295  0.08424402  0.05315336     0.03300
C616        C  0.13489009  0.06961624  0.05299166     0.09300
C617        C  0.13243557  0.06031080  0.07021656    -0.03800
H618        H  0.11838370  0.09375823  0.04151681     0.10000
H619        H  0.13937991  0.04748209  0.07494307     0.11200
Cu620      Cu  0.08776638  0.09822076  0.07627261     0.44200
Cu621      Cu  0.10518974  0.05956940  0.10426524     0.42000
Cu622      Cu  0.05876912  0.08020062  0.11484737     0.43900
N623        N  0.06121251  0.10872629  0.08295336    -0.32400
N624        N  0.05052466  0.10238686  0.09706703    -0.26700
C625        C  0.03367842  0.11150857  0.09659365    -0.02800
C626        C  0.03375037  0.12398955  0.08129445     0.09400
C627        C  0.05147973  0.12186231  0.07306557     0.03200
H628        H  0.02192393  0.10858800  0.10609653     0.10900
H629        H  0.05683243  0.12904209  0.06053716     0.10000
N630        N  0.06998500  0.05654922  0.12861792    -0.33900
N631        N  0.08699421  0.04941336  0.12497581    -0.26000
C632        C  0.08932393  0.03337447  0.13504078    -0.01300
C633        C  0.07295800  0.03009081  0.14545281     0.07300
C634        C  0.06101048  0.04512082  0.14107388     0.05400
H635        H  0.10151577  0.02410619  0.13380670     0.10500
H636        H  0.04659224  0.04726522  0.14601534     0.09400
N637        N  0.65991403  0.46846998  0.67671598    -0.01200
C638        C  0.67058040  0.47768879  0.66340344     0.01400
C639        C  0.68964794  0.47290029  0.66558992    -0.21500
C640        C  0.69088549  0.46049485  0.68063903    -0.21700
C641        C  0.67252452  0.45800608  0.68704346     0.01300
H642        H  0.70150578  0.47839500  0.65742378     0.15100
H643        H  0.70374857  0.45421872  0.68645175     0.15100
N644        N  0.73520803  0.54674137  0.55011440    -0.01200
C645        C  0.72004989  0.53682367  0.55714155     0.01400
C646        C  0.71981608  0.51872154  0.54956450    -0.21500
C647        C  0.73503630  0.51740183  0.53745861    -0.21700
C648        C  0.74406473  0.53474652  0.53794736     0.01300
H649        H  0.71007929  0.50735283  0.55320818     0.15100
H650        H  0.73906802  0.50516481  0.52917845     0.15100
N651        N  0.53479430  0.42041636  0.71365039    -0.01200
C652        C  0.52292774  0.40710674  0.72142492     0.01400
C653        C  0.50568317  0.40691694  0.71159461    -0.21500
C654        C  0.50681318  0.42031973  0.69743863    -0.21700
C655        C  0.52476347  0.42818953  0.69892958     0.01300
H656        H  0.49340271  0.39809641  0.71466614     0.15100
H657        H  0.49573851  0.42401813  0.68726635     0.15100
N658        N  0.45615859  0.29267957  0.79073528    -0.01200
C659        C  0.46509474  0.30701579  0.78111871     0.01400
C660        C  0.46563571  0.30282221  0.76182343    -0.21500
C661        C  0.45684124  0.28562332  0.75932058    -0.21700
C662        C  0.45126027  0.27985077  0.77715934     0.01300
H663        H  0.47228506  0.31124874  0.75077657     0.15100
H664        H  0.45497282  0.27804569  0.74604331     0.15100
N665        N  0.77166823  0.66870828  0.49744972    -0.01200
C666        C  0.78181839  0.67797492  0.48375491     0.01400
C667        C  0.77123924  0.69300610  0.47666595    -0.21500
C668        C  0.75398950  0.69282364  0.48587533    -0.21700
C669        C  0.75467996  0.67781894  0.49842189     0.01300
H670        H  0.77558156  0.70293653  0.46573053     0.15100
H671        H  0.74201201  0.70210833  0.48317643     0.15100
N672        N  0.91771841  0.72902280  0.42634229    -0.01200
C673        C  0.90875349  0.71369530  0.43436201     0.01400
C674        C  0.92100086  0.70502501  0.44731654    -0.21500
C675        C  0.93789203  0.71492289  0.44724116    -0.21700
C676        C  0.93541357  0.72949688  0.43444261     0.01300
H677        H  0.91771667  0.69304476  0.45639526     0.15100
H678        H  0.95056307  0.71186119  0.45559996     0.15100
N679        N  0.40974209  0.23169927  0.90755248    -0.01200
C680        C  0.39862709  0.21925038  0.91755141     0.01400
C681        C  0.40699588  0.21555952  0.93513369    -0.21500
C682        C  0.42362481  0.22582457  0.93611402    -0.21700
C683        C  0.42502664  0.23534328  0.91903806     0.01300
H684        H  0.40132304  0.20655337  0.94626544     0.15100
H685        H  0.43371319  0.22614026  0.94787758     0.15100
N686        N  0.28091741  0.16693261  0.99474682    -0.01200
C687        C  0.29596289  0.17583337  0.98611703     0.01400
C688        C  0.29725837  0.19437018  0.99251901    -0.21500
C689        C  0.28279717  0.19712866  0.00526879    -0.21700
C690        C  0.27316575  0.18017739  0.00638871     0.01300
H691        H  0.30706269  0.20513559  0.98748343     0.15100
H692        H  0.27940139  0.21015624  0.01256233     0.15100
N693        N  0.16941619  0.97056978  0.18861484    -0.01200
C694        C  0.17801731  0.98069140  0.17440201     0.01400
C695        C  0.19766000  0.97853689  0.17557096    -0.21500
C696        C  0.20144126  0.96684349  0.19073562    -0.21700
C697        C  0.18399482  0.96211600  0.19827448     0.01300
H698        H  0.20817457  0.98509218  0.16641319     0.15100
H699        H  0.21534680  0.96229568  0.19572886     0.15100
N700        N  0.23719486  0.05183792  0.05870692    -0.01200
C701        C  0.23040998  0.04180413  0.07396632     0.01400
C702        C  0.23809532  0.02373612  0.07395705    -0.21500
C703        C  0.24976202  0.02240344  0.05843261    -0.21700
C704        C  0.24902638  0.03974010  0.04950960     0.01300
H705        H  0.23481248  0.01238699  0.08382411     0.15100
H706        H  0.25748333  0.01000781  0.05383331     0.15100
N707        N  0.94916446  0.82795909  0.33327460    -0.01200
C708        C  0.96240593  0.84219687  0.33223535     0.01400
C709        C  0.95320781  0.85914963  0.32821346    -0.21500
C710        C  0.93411327  0.85529653  0.32613000    -0.21700
C711        C  0.93208145  0.83621572  0.32941224     0.01300
H712        H  0.95998639  0.87248018  0.32460082     0.15100
H713        H  0.92316217  0.86503552  0.32138991     0.15100
N714        N  0.05419352  0.90500906  0.23132465    -0.01200
C715        C  0.04643030  0.88858111  0.23824545     0.01400
C716        C  0.03258556  0.88204334  0.22556989    -0.21500
C717        C  0.03168500  0.89457125  0.21060079    -0.21700
C718        C  0.04506795  0.90832433  0.21449597     0.01300
H719        H  0.02293923  0.87024220  0.22782853     0.15100
H720        H  0.02186069  0.89411443  0.19862517     0.15100
C721        C  0.02476756  0.88322656  0.28645254     0.14900
C722        C  0.02680846  0.86355508  0.28949580     0.01900
C723        C  0.03963466  0.85366676  0.27782904     0.16900
C724        C  0.04875063  0.86279598  0.26248908     0.26300
C725        C  0.04544454  0.88208282  0.25847925    -0.40100
C726        C  0.03409754  0.89239147  0.27124960     0.33300
C727        C  0.01367480  0.85323491  0.30296510     0.01900
F728        F  0.04233704  0.83482180  0.28046265    -0.12400
F729        F  0.02991148  0.91078872  0.26746875    -0.12900
C730        C  0.00099612  0.83918355  0.29607276     0.16900
C731        C  0.98564375  0.83274541  0.30725874     0.26300
C732        C  0.98245450  0.84038419  0.32548405    -0.40000
C733        C  0.99636601  0.85269843  0.33315165     0.33200
C734        C  0.01179024  0.85900575  0.32207194     0.14900
F735        F  0.00215556  0.83319553  0.27774344    -0.12400
F736        F  0.99375190  0.86038092  0.35065811    -0.12900
F737        F  0.97240013  0.82109635  0.29920693    -0.15200
F738        F  0.02410004  0.87181999  0.32965882    -0.13700
F739        F  0.01214490  0.89324304  0.29695730    -0.13700
F740        F  0.05924483  0.85229845  0.25026304    -0.15100
C741        C  0.10427866  0.91633698  0.22099509     0.14900
C742        C  0.10352411  0.93631094  0.22137385     0.01900
C743        C  0.08811413  0.94472265  0.23099193     0.16900
C744        C  0.07310968  0.93357096  0.23828209     0.26300
C745        C  0.07252705  0.91386398  0.23522694    -0.40100
C746        C  0.08896115  0.90529279  0.22777037     0.33300
C747        C  0.11841113  0.94813677  0.21128533     0.01900
F748        F  0.08653251  0.96383143  0.23167931    -0.12400
F749        F  0.08902002  0.88634394  0.22461603    -0.12900
C750        C  0.12345398  0.94434719  0.19219202     0.16900
C751        C  0.13878395  0.95393082  0.18344584     0.26300
C752        C  0.14952058  0.96754354  0.19348981    -0.40000
C753        C  0.14334809  0.97258213  0.21188513     0.33200
C754        C  0.12818460  0.96289417  0.22074770     0.14900
F755        F  0.11411296  0.93067472  0.18221931    -0.12400
F756        F  0.15356817  0.98544658  0.22210995    -0.12900
F757        F  0.14451443  0.94839523  0.16589971    -0.15200
F758        F  0.12422849  0.96679794  0.23921850    -0.13700
F759        F  0.11940883  0.90746621  0.21306307    -0.13700
F760        F  0.05768936  0.94229006  0.24579149    -0.15100
C761        C  0.17540651  0.00055730  0.12610895     0.14900
C762        C  0.17902917  0.01980291  0.13022103     0.01900
C763        C  0.17541758  0.02616604  0.14889978     0.16900
C764        C  0.17079312  0.01323990  0.16351114     0.26300
C765        C  0.16979529  0.99366327  0.15982145    -0.40100
C766        C  0.17069944  0.98771526  0.14071695     0.33300
C767        C  0.18966251  0.03199578  0.11610991     0.01900
F768        F  0.17809136  0.04466344  0.15340411    -0.12400
F769        F  0.17009034  0.96893168  0.13664440    -0.12900
C770        C  0.18367533  0.03353831  0.09691365     0.16900
C771        C  0.19614827  0.04061559  0.08285674     0.26300
C772        C  0.21491554  0.04625015  0.08763989    -0.40000
C773        C  0.21998770  0.04682716  0.10709357     0.33200
C774        C  0.20762940  0.03969906  0.12112154     0.14900
F775        F  0.16632214  0.02672364  0.09150403    -0.12400
F776        F  0.23810244  0.05162285  0.11223677    -0.12900
F777        F  0.19082293  0.03946373  0.06423900    -0.15200
F778        F  0.21428101  0.03820430  0.13929642    -0.13700
F779        F  0.17880540  0.99362478  0.10842860    -0.13700
F780        F  0.17011999  0.01951515  0.18177725    -0.15100
C781        C  0.24771875  0.12731887  0.00333252     0.14900
C782        C  0.25826803  0.11649381  0.01670784     0.01900
C783        C  0.27817635  0.11991563  0.01783408     0.16900
C784        C  0.28664987  0.13512367  0.00789367     0.26300
C785        C  0.27564798  0.14706758  0.99613872    -0.40100
C786        C  0.25647208  0.14188430  0.99274552     0.33300
C787        C  0.24871332  0.10201167  0.02958956     0.01900
F788        F  0.28942469  0.10906476  0.02924876    -0.12400
F789        F  0.24549729  0.15279144  0.98111199    -0.12900
C790        C  0.23501242  0.08906267  0.02245389     0.16900
C791        C  0.22759204  0.07452978  0.03403267     0.26300
C792        C  0.23488091  0.07132486  0.05252228    -0.40000
C793        C  0.24696431  0.08528857  0.06037335     0.33200
C794        C  0.25349113  0.10063572  0.04920365     0.14900
F795        F  0.23016904  0.08913326  0.00373288    -0.12400
F796        F  0.25435870  0.08276881  0.07813429    -0.12900
F797        F  0.21562573  0.06154125  0.02610280    -0.15200
F798        F  0.26529992  0.11360384  0.05740553    -0.13700
F799        F  0.22853901  0.12515475  0.00169818    -0.13700
F800        F  0.30518277  0.13955488  0.01153203    -0.15100
C801        C  0.34745814  0.21140117  0.92716438     0.14900
C802        C  0.34700681  0.19142120  0.92734038     0.01900
C803        C  0.36184730  0.18171282  0.91819435     0.16900
C804        C  0.37772185  0.19164859  0.91097952     0.26300
C805        C  0.37934480  0.21142822  0.91317899    -0.40100
C806        C  0.36346954  0.22127147  0.92019424     0.33300
C807        C  0.33276002  0.18112389  0.93954715     0.01900
F808        F  0.36162042  0.16251294  0.91750383    -0.12400
F809        F  0.36461392  0.24028204  0.92284575    -0.12900
C810        C  0.31301339  0.18372750  0.93690336     0.16900
C811        C  0.30004353  0.17831027  0.95116493     0.26300
C812        C  0.30649858  0.17047850  0.96857313    -0.40000
C813        C  0.32599720  0.16599154  0.97027339     0.33200
C814        C  0.33896806  0.17112022  0.95587945     0.14900
F815        F  0.30642387  0.19302711  0.92123772    -0.12400
F816        F  0.33288873  0.15890611  0.98695127    -0.12900
F817        F  0.28148482  0.18339443  0.94918169    -0.15200
F818        F  0.35790032  0.16825764  0.95896619    -0.13700
F819        F  0.33338992  0.22134336  0.93574420    -0.13700
F820        F  0.39266125  0.18174002  0.90397278    -0.15100
C821        C  0.94448345  0.79742469  0.37625418     0.14900
C822        C  0.93564442  0.78114028  0.36845565     0.01900
C823        C  0.93548727  0.77925119  0.34842939     0.16900
C824        C  0.94292574  0.79363632  0.33664914     0.26300
C825        C  0.95003346  0.81065185  0.34445498    -0.40100
C826        C  0.95150735  0.81195614  0.36443048     0.33300
C827        C  0.92651371  0.76640376  0.38116532     0.01900
F828        F  0.92665033  0.76422467  0.34012299    -0.12400
F829        F  0.95796157  0.82822036  0.37254072    -0.12900
C830        C  0.91407310  0.77161953  0.39600994     0.16900
C831        C  0.90809013  0.75826450  0.40972303     0.26300
C832        C  0.91398070  0.73926325  0.40876196    -0.40000
C833        C  0.92410605  0.73361580  0.39244135     0.33200
C834        C  0.93078291  0.74702267  0.37916523     0.14900
F835        F  0.90848067  0.78989965  0.39787074    -0.12400
F836        F  0.93025925  0.71547165  0.39111999    -0.12900
F837        F  0.89839040  0.76437272  0.42517119    -0.15200
F838        F  0.94302141  0.74122520  0.36548645    -0.13700
F839        F  0.94571042  0.79968937  0.39541316    -0.13700
F840        F  0.94133166  0.79183073  0.31745148    -0.15100
C841        C  0.82193732  0.67561945  0.44893601     0.14900
C842        C  0.83660550  0.68467659  0.45933126     0.01900
C843        C  0.83425980  0.68693342  0.47916580     0.16900
C844        C  0.81696400  0.68195497  0.48800377     0.26300
C845        C  0.80165361  0.67464278  0.47721401    -0.40100
C846        C  0.80462435  0.67077685  0.45776572     0.33300
C847        C  0.85367984  0.69293214  0.44942417     0.01900
F848        F  0.84841037  0.69487188  0.48983741    -0.12400
F849        F  0.79002187  0.66395794  0.44690035    -0.12900
C850        C  0.85779881  0.71245387  0.45074628     0.16900
C851        C  0.87480570  0.72003079  0.44325153     0.26300
C852        C  0.88810025  0.70830580  0.43413051    -0.40000
C853        C  0.88324653  0.68902985  0.43158606     0.33200
C854        C  0.86626570  0.68144323  0.43910190     0.14900
F855        F  0.84569328  0.72409772  0.46010380    -0.12400
F856        F  0.89590921  0.67711840  0.42335634    -0.12900
F857        F  0.87919658  0.73840924  0.44680456    -0.15200
F858        F  0.86287689  0.66256139  0.43755814    -0.13700
F859        F  0.82371628  0.67291661  0.42988125    -0.13700
F860        F  0.81447556  0.68614139  0.50669903    -0.15100
C861        C  0.45088911  0.26859141  0.83745930     0.14900
C862        C  0.43144150  0.27175113  0.84123031     0.01900
C863        C  0.42179450  0.28541458  0.83013266     0.16900
C864        C  0.43104437  0.29467107  0.81492115     0.26300
C865        C  0.45015544  0.29058458  0.81037241    -0.40100
C866        C  0.46012465  0.27796682  0.82235683     0.33300
C867        C  0.42143431  0.26074200  0.85666946     0.01900
F868        F  0.40297821  0.28876729  0.83306556    -0.12400
F869        F  0.47838172  0.27334739  0.81825089    -0.12900
C870        C  0.41245655  0.27016547  0.87180239     0.16900
C871        C  0.40567105  0.26001275  0.88765993     0.26300
C872        C  0.40763117  0.24019739  0.88886100    -0.40000
C873        C  0.41481281  0.23060469  0.87293238     0.33200
C874        C  0.42193129  0.24073932  0.85715752     0.14900
F875        F  0.41192766  0.28937214  0.87214725    -0.12400
F876        F  0.41713795  0.21154665  0.87371812    -0.12900
F877        F  0.39929869  0.26973145  0.90299903    -0.15200
F878        F  0.43035922  0.23101980  0.84285716    -0.13700
F879        F  0.46078810  0.25583059  0.84803735    -0.13700
F880        F  0.42072936  0.30615079  0.80325627    -0.15100
C881        C  0.51975733  0.36206220  0.74869925     0.14900
C882        C  0.51124416  0.36831149  0.76570784     0.01900
C883        C  0.51162634  0.38787633  0.76966507     0.16900
C884        C  0.51872504  0.40091317  0.75615643     0.26300
C885        C  0.52561779  0.39470589  0.73842096    -0.40100
C886        C  0.52684077  0.37507861  0.73528552     0.33300
C887        C  0.49965710  0.35462702  0.77742357     0.01900
F888        F  0.50390458  0.39447648  0.78603324    -0.12400
F889        F  0.53258700  0.36856756  0.71806599    -0.12900
C890        C  0.50760557  0.33747156  0.78394051     0.16900
C891        C  0.49576018  0.32226289  0.78937992     0.26300
C892        C  0.47574589  0.32379592  0.78834980    -0.40000
C893        C  0.46794690  0.34174959  0.78449686     0.33200
C894        C  0.47973690  0.35699222  0.77901162     0.14900
F895        F  0.52677240  0.33480452  0.78324087    -0.12400
F896        F  0.44870763  0.34371667  0.78314527    -0.12900
F897        F  0.50373117  0.30506393  0.79253279    -0.15200
F898        F  0.47140838  0.37327835  0.77295340    -0.13700
F899        F  0.51928379  0.34341785  0.74402087    -0.13700
F900        F  0.51672831  0.41972392  0.75944500    -0.15100
C901        C  0.76399441  0.61791084  0.50727682     0.14900
C902        C  0.76318755  0.61800233  0.52733181     0.01900
C903        C  0.76983832  0.63409890  0.53712177     0.16900
C904        C  0.77561750  0.65032357  0.52697876     0.26300
C905        C  0.77488790  0.65077935  0.50688350    -0.40100
C906        C  0.76994732  0.63406518  0.49718407     0.33300
C907        C  0.75454713  0.60161150  0.53772546     0.01900
F908        F  0.76925437  0.63466227  0.55645389    -0.12400
F909        F  0.76859799  0.63419236  0.47787770    -0.12900
C910        C  0.76586974  0.58965790  0.54914137     0.16900
C911        C  0.75847764  0.57237971  0.55587385     0.26300
C912        C  0.73967352  0.56671357  0.55126698    -0.40000
C913        C  0.72773731  0.57970646  0.54182909     0.33200
C914        C  0.73516226  0.59688817  0.53491990     0.14900
F915        F  0.78455163  0.59388306  0.55230982    -0.12400
F916        F  0.70961858  0.57462872  0.53704077    -0.12900
F917        F  0.77030006  0.56014719  0.56506242    -0.15200
F918        F  0.72374357  0.60830957  0.52430351    -0.13700
F919        F  0.75792217  0.60249731  0.49740982    -0.13700
F920        F  0.77990070  0.66637022  0.53674586    -0.15100
C921        C  0.61087095  0.44863837  0.67741562     0.14900
C922        C  0.60560681  0.45290126  0.69631840     0.01900
C923        C  0.61673686  0.46621766  0.70639374     0.16900
C924        C  0.63317840  0.47418044  0.69827208     0.26300
C925        C  0.63959922  0.46825961  0.68029204    -0.40100
C926        C  0.62777739  0.45608374  0.66959624     0.33300
C927        C  0.58883670  0.44328972  0.70559203     0.01900
F928        F  0.61273120  0.47017721  0.72480738    -0.12400
F929        F  0.63371570  0.44971925  0.65241570    -0.12900
C930        C  0.58642431  0.42343862  0.70475008     0.16900
C931        C  0.56923091  0.41488243  0.71061893     0.26300
C932        C  0.55430152  0.42589740  0.71788395    -0.40000
C933        C  0.55802526  0.44517447  0.72159051     0.33200
C934        C  0.57469577  0.45392931  0.71483801     0.14900
F935        F  0.60027249  0.41241899  0.69721344    -0.12400
F936        F  0.54400396  0.45615691  0.72885187    -0.12900
F937        F  0.56622199  0.39625471  0.70694020    -0.15200
F938        F  0.57598820  0.47309371  0.71552363    -0.13700
F939        F  0.60015795  0.43650404  0.66679651    -0.13700
F940        F  0.64427261  0.48588642  0.70897273    -0.15100
C941        C  0.67540159  0.52418473  0.63952942     0.14900
C942        C  0.67504255  0.51847329  0.62031759     0.01900
C943        C  0.66736316  0.50049042  0.61590254     0.16900
C944        C  0.66239730  0.48774126  0.63048125     0.26300
C945        C  0.66489300  0.49271111  0.64973049    -0.40100
C946        C  0.67034614  0.51143628  0.65407266     0.33300
C947        C  0.68563404  0.52947671  0.60541621     0.01900
F948        F  0.66683385  0.49435843  0.59757418    -0.12400
F949        F  0.67339871  0.51650396  0.67251099    -0.12900
C950        C  0.70540244  0.53285657  0.60767736     0.16900
C951        C  0.71654031  0.53878285  0.59217763     0.26300
C952        C  0.70824100  0.54114618  0.57403643    -0.40000
C953        C  0.68823300  0.53973099  0.57225053     0.33200
C954        C  0.67702191  0.53402200  0.58779623     0.14900
F955        F  0.71436703  0.52828784  0.62428562    -0.12400
F956        F  0.67981706  0.54178790  0.55486304    -0.12900
F957        F  0.73582354  0.53949217  0.59426005    -0.15200
F958        F  0.65794766  0.53150921  0.58522083    -0.13700
F959        F  0.68229401  0.54154046  0.64431975    -0.13700
F960        F  0.65770582  0.46966487  0.62578932    -0.15100
C961        C  0.04616333  0.98739382  0.16434780     0.14900
C962        C  0.06037038  0.97829419  0.17517658     0.01900
C963        C  0.07855869  0.98664078  0.17678366     0.16900
C964        C  0.08255988  0.00369683  0.16740640     0.26300
C965        C  0.06837535  0.01274309  0.15639051    -0.40100
C966        C  0.05008886  0.00448539  0.15507662     0.33300
C967        C  0.05611459  0.96007369  0.18470115     0.01900
F968        F  0.09236498  0.97837769  0.18760781    -0.12400
F969        F  0.03623824  0.01242407  0.14406768    -0.12900
C970        C  0.06640747  0.94367050  0.18009466     0.16900
C971        C  0.06234221  0.92647605  0.18920972     0.26300
C972        C  0.04783871  0.92551758  0.20287502    -0.40000
C973        C  0.03722627  0.94174217  0.20708894     0.33200
C974        C  0.04142652  0.95894817  0.19819263     0.14900
F975        F  0.08022585  0.94432652  0.16664380    -0.12400
F976        F  0.02328252  0.94102760  0.22041619    -0.12900
F977        F  0.07274524  0.91087958  0.18499980    -0.15200
F978        F  0.03151583  0.97465079  0.20312671    -0.13700
F979        F  0.02861639  0.97937376  0.16225562    -0.13700
F980        F  0.10022733  0.01149565  0.16930727    -0.15100
C981        C  0.18922547  0.03289148  0.98600342     0.14900
C982        C  0.17319895  0.04475005  0.98513247     0.01900
C983        C  0.16587268  0.05038141  0.96728977     0.16900
C984        C  0.17476705  0.04458097  0.95054861     0.26300
C985        C  0.19111889  0.03320177  0.95149462    -0.40100
C986        C  0.19804960  0.02704131  0.96927170     0.33300
C987        C  0.16405911  0.05110049  0.00285708     0.01900
F988        F  0.14997526  0.06127340  0.96611338    -0.12400
F989        F  0.21374618  0.01586871  0.97040400    -0.12900
C990        C  0.16276063  0.07048661  0.00700614     0.16900
C991        C  0.15371603  0.07649166  0.02360092     0.26300
C992        C  0.14588834  0.06318011  0.03633700    -0.40000
C993        C  0.14752932  0.04372791  0.03227191     0.33200
C994        C  0.15652036  0.03777188  0.01565413     0.14900
F995        F  0.17034394  0.08358285  0.99500216    -0.12400
F996        F  0.13955638  0.03044418  0.04378180    -0.12900
F997        F  0.15269882  0.09532742  0.02725735    -0.15200
F998        F  0.15725344  0.01897384  0.01168550    -0.13700
F999        F  0.19655421  0.02735539  0.00309116    -0.13700
F1000       F  0.16736814  0.04991554  0.93342629    -0.15100
C1001       C  0.28887610  0.99959811  0.86870963     0.14900
C1002       C  0.27637070  0.01095646  0.85774323     0.01900
C1003       C  0.27623637  0.00828272  0.83775195     0.16900
C1004       C  0.28581544  0.99283192  0.82949370     0.26300
C1005       C  0.29617258  0.98005018  0.84095510    -0.40100
C1006       C  0.29885808  0.98458969  0.86033788     0.33300
C1007       C  0.26118269  0.02254660  0.86749485     0.01900
F1008       F  0.26547363  0.01964444  0.82636192    -0.12400
F1009       F  0.30898177  0.97271539  0.87180231    -0.12900
C1010       C  0.26534092  0.03395169  0.88356929     0.16900
C1011       C  0.25073890  0.03964178  0.89610592     0.26300
C1012       C  0.23160045  0.03465453  0.89239722    -0.40000
C1013       C  0.22727442  0.02615836  0.87469536     0.33200
C1014       C  0.24178926  0.01963219  0.86275831     0.14900
F1015       F  0.28370232  0.03833893  0.88792822    -0.12400
F1016       F  0.20895207  0.02117536  0.87053522    -0.12900
F1017       F  0.25556422  0.04794574  0.91290689    -0.15200
F1018       F  0.23674239  0.00832396  0.84791084    -0.13700
F1019       F  0.28969194  0.00136758  0.88796449    -0.13700
F1020       F  0.28279461  0.98894258  0.81077627    -0.15100
C1021       C  0.37121231  0.94914205  0.75373981     0.14900
C1022       C  0.36402519  0.93840963  0.76899461     0.01900
C1023       C  0.37228446  0.92056492  0.77265756     0.16900
C1024       C  0.38851337  0.91457053  0.76259874     0.26300
C1025       C  0.39670645  0.92612289  0.74845476    -0.40100
C1026       C  0.38692419  0.94278859  0.74321561     0.33300
C1027       C  0.34883114  0.94626247  0.78175611     0.01900
F1028       F  0.36546791  0.90949224  0.78692743    -0.12400
F1029       F  0.39451935  0.95440575  0.72979551    -0.12900
C1030       C  0.33086933  0.95165612  0.77444426     0.16900
C1031       C  0.31601392  0.95674281  0.78680515     0.26300
C1032       C  0.31864094  0.95638180  0.80676795    -0.40000
C1033       C  0.33715765  0.95302818  0.81387622     0.33200
C1034       C  0.35200011  0.94782818  0.80156514     0.14900
F1035       F  0.32709184  0.95018376  0.75549801    -0.12400
F1036       F  0.34020338  0.95221896  0.83298835    -0.12900
F1037       F  0.29826555  0.95939194  0.77945603    -0.15200
F1038       F  0.36920455  0.94315266  0.80917401    -0.13700
F1039       F  0.36446426  0.96678568  0.75044601    -0.13700
F1040       F  0.39763040  0.89864936  0.76838260    -0.15100
C1041       C  0.43730000  0.83816161  0.67752665     0.14900
C1042       C  0.44682045  0.85153150  0.68906603     0.01900
C1043       C  0.46642216  0.84892940  0.69274320     0.16900
C1044       C  0.47583411  0.83248224  0.68661312     0.26300
C1045       C  0.46589812  0.81813613  0.67668020    -0.40100
C1046       C  0.44674354  0.82163444  0.67141455     0.33300
C1047       C  0.43624069  0.86693074  0.69923344     0.01900
F1048       F  0.47610908  0.86164330  0.70366550    -0.12400
F1049       F  0.43652281  0.80797077  0.66229733    -0.12900
C1050       C  0.43092195  0.86438681  0.71840158     0.16900
C1051       C  0.42501142  0.87983039  0.72956928     0.26300
C1052       C  0.42412904  0.89823336  0.72183039    -0.40000
C1053       C  0.42769042  0.90034737  0.70211976     0.33200
C1054       C  0.43372870  0.88491410  0.69097368     0.14900
F1055       F  0.43305288  0.84717240  0.72679076    -0.12400
F1056       F  0.42772248  0.91792132  0.69422955    -0.12900
F1057       F  0.42262224  0.87717652  0.74855815    -0.15200
F1058       F  0.43871917  0.88791999  0.67254672    -0.13700
F1059       F  0.41845843  0.84033940  0.67347303    -0.13700
F1060       F  0.49408234  0.82945416  0.69250951    -0.15100
C1061       C  0.16633628  0.11615920  0.94810193     0.14900
C1062       C  0.18596598  0.11211713  0.95085175     0.01900
C1063       C  0.19655318  0.12455306  0.96265503     0.16900
C1064       C  0.18807488  0.14058853  0.97080826     0.26300
C1065       C  0.16922416  0.14584679  0.96610279    -0.40100
C1066       C  0.15822748  0.13299940  0.95527207     0.33300
C1067       C  0.19544382  0.09514397  0.94164553     0.01900
F1068       F  0.21564427  0.12223742  0.96497672    -0.12400
F1069       F  0.14013703  0.13763527  0.95010305    -0.12900
C1070       C  0.19204033  0.09010694  0.92235631     0.16900
C1071       C  0.19927486  0.07302913  0.91478286     0.26300
C1072       C  0.21081576  0.06100698  0.92595736    -0.40000
C1073       C  0.21635333  0.06745105  0.94417440     0.33200
C1074       C  0.20806197  0.08359495  0.95223626     0.14900
F1075       F  0.18117054  0.10134433  0.91095519    -0.12400
F1076       F  0.22778313  0.05646470  0.95526051    -0.12900
F1077       F  0.19359854  0.06739634  0.89714506    -0.15200
F1078       F  0.21105167  0.08681914  0.97105597    -0.13700
F1079       F  0.15505849  0.10415529  0.93791646    -0.13700
F1080       F  0.19915537  0.15256244  0.98124390    -0.15100
C1081       C  0.12651507  0.18262441  0.02158196     0.14900
C1082       C  0.10764917  0.18442624  0.01461038     0.01900
C1083       C  0.10359745  0.17727005  0.99622395     0.16900
C1084       C  0.11827404  0.17050110  0.98448772     0.26300
C1085       C  0.13745901  0.17103998  0.99055749    -0.40100
C1086       C  0.14122364  0.17609422  0.00967819     0.33300
C1087       C  0.09301097  0.19622294  0.02489338     0.01900
F1088       F  0.08579839  0.17893410  0.98862575    -0.12400
F1089       F  0.15956881  0.17726386  0.01598175    -0.12900
C1090       C  0.09728975  0.21509279  0.03009444     0.16900
C1091       C  0.08272638  0.22769826  0.03528425     0.26300
C1092       C  0.06345845  0.22197462  0.03514847    -0.40000
C1093       C  0.05938014  0.20268752  0.03193633     0.33200
C1094       C  0.07397934  0.18992946  0.02701957     0.14900
F1095       F  0.11525642  0.22205233  0.02804373    -0.12400
F1096       F  0.04094311  0.19669120  0.03127122    -0.12900
F1097       F  0.08717746  0.24625967  0.03783166    -0.15200
F1098       F  0.06926144  0.17170828  0.02296667    -0.13700
F1099       F  0.13102125  0.18861868  0.03943993    -0.13700
F1100       F  0.11409171  0.16629082  0.96604511    -0.15100
C1101       C  0.03380105  0.26171168  0.08998622     0.14900
C1102       C  0.01403333  0.25977800  0.09342499     0.01900
C1103       C  0.00310516  0.24901455  0.08043697     0.16900
C1104       C  0.01150084  0.24090564  0.06433953     0.26300
C1105       C  0.03062605  0.24490296  0.05962191    -0.40100
C1106       C  0.04191351  0.25465946  0.07308351     0.33300
C1107       C  0.00476108  0.26862479  0.11052140     0.01900
F1108       F  0.98389129  0.24779021  0.08236170    -0.12400
F1109       F  0.06032456  0.25895353  0.06899024    -0.12900
C1110       C  0.00787611  0.28777857  0.11546652     0.16900
C1111       C  0.00092276  0.29507556  0.13277334     0.26300
C1112       C  0.99033609  0.28353249  0.14523584    -0.40000
C1113       C  0.98513142  0.26527084  0.13902461     0.33200
C1114       C  0.99284031  0.25769423  0.12231678     0.14900
F1115       F  0.01834175  0.29921897  0.10396520    -0.12400
F1116       F  0.97460093  0.25388992  0.15053551    -0.12900
F1117       F  0.00623830  0.31273271  0.13830441    -0.15200
F1118       F  0.99018765  0.23905454  0.11862834    -0.13700
F1119       F  0.04514925  0.27107796  0.10261746    -0.13700
F1120       F  0.00021844  0.23136264  0.05178209    -0.15100
C1121       C  0.93612946  0.32555473  0.17588690     0.14900
C1122       C  0.94189431  0.34404169  0.18093880     0.01900
C1123       C  0.96113281  0.34919803  0.17805200     0.16900
C1124       C  0.97455926  0.33565863  0.17243319     0.26300
C1125       C  0.96916732  0.31664083  0.16970285    -0.40100
C1126       C  0.94961884  0.31202437  0.17016370     0.33300
C1127       C  0.92920416  0.35673922  0.19237472     0.01900
F1128       F  0.96749804  0.36669254  0.18306985    -0.12400
F1129       F  0.94394328  0.29376869  0.16777280    -0.12900
C1130       C  0.92212002  0.35042491  0.21005495     0.16900
C1131       C  0.91540036  0.36341220  0.22354441     0.26300
C1132       C  0.91616850  0.38301794  0.21993309    -0.40000
C1133       C  0.92032996  0.38900759  0.20124975     0.33200
C1134       C  0.92703056  0.37602787  0.18766517     0.14900
F1135       F  0.92419642  0.33205053  0.21540538    -0.12400
F1136       F  0.92107312  0.40780613  0.19720002    -0.12900
F1137       F  0.91167512  0.35712474  0.24145541    -0.15200
F1138       F  0.93331129  0.38260684  0.17063418    -0.13700
F1139       F  0.91774190  0.32006968  0.17829922    -0.13700
F1140       F  0.99335437  0.34048471  0.17248741    -0.15100
C1141       C  0.84685396  0.44670179  0.29276590     0.14900
C1142       C  0.85077953  0.44904792  0.27314631     0.01900
C1143       C  0.83960893  0.46223657  0.26286144     0.16900
C1144       C  0.82409780  0.47138913  0.27145242     0.26300
C1145       C  0.81853880  0.46687768  0.29019509    -0.40100
C1146       C  0.83080022  0.45533085  0.30109984     0.33300
C1147       C  0.86591588  0.43741468  0.26332314     0.01900
F1148       F  0.84246871  0.46498915  0.24394852    -0.12400
F1149       F  0.82602620  0.45071535  0.31923720    -0.12900
C1150       C  0.86697027  0.41753072  0.26572231     0.16900
C1151       C  0.88209001  0.40703236  0.25778269     0.26300
C1152       C  0.89633946  0.41602337  0.24695190    -0.40000
C1153       C  0.89408278  0.43542712  0.24292849     0.33200
C1154       C  0.87954014  0.44606242  0.25141540     0.14900
F1155       F  0.85379717  0.40830425  0.27642064    -0.12400
F1156       F  0.90759702  0.44457912  0.23266392    -0.12900
F1157       F  0.88395293  0.38845086  0.26236570    -0.15200
F1158       F  0.87992746  0.46513562  0.24934002    -0.13700
F1159       F  0.85805221  0.43534157  0.30372353    -0.13700
F1160       F  0.81273917  0.48266324  0.26057768    -0.15100
C1161       C  0.75551721  0.53512938  0.36306891     0.14900
C1162       C  0.77536606  0.53194979  0.36417635     0.01900
C1163       C  0.78507867  0.53731963  0.38094280     0.16900
C1164       C  0.77491726  0.54340088  0.39699937     0.26300
C1165       C  0.75477927  0.54398739  0.39676660    -0.40100
C1166       C  0.74532776  0.54106730  0.37922063     0.33300
C1167       C  0.78493672  0.51968928  0.34966920     0.01900
F1168       F  0.80425722  0.53490365  0.38237723    -0.12400
F1169       F  0.72596141  0.54096396  0.37847788    -0.12900
C1170       C  0.78542638  0.52466291  0.33022854     0.16900
C1171       C  0.79048264  0.51118299  0.31638188     0.26300
C1172       C  0.79486025  0.49239097  0.32165519    -0.40000
C1173       C  0.79617699  0.48805655  0.34119268     0.33200
C1174       C  0.79131265  0.50151680  0.35502636     0.14900
F1175       F  0.77968053  0.54213276  0.32453299    -0.12400
F1176       F  0.79952933  0.46995136  0.34680284    -0.12900
F1177       F  0.78862680  0.51576332  0.29764617    -0.15200
F1178       F  0.79073052  0.49604263  0.37358469    -0.13700
F1179       F  0.74562744  0.53021544  0.34709528    -0.13700
F1180       F  0.78454124  0.54591340  0.41369123    -0.15100
C1181       C  0.52037293  0.75911210  0.58739398     0.14900
C1182       C  0.52547111  0.76170020  0.60671566     0.01900
C1183       C  0.54367145  0.75529285  0.61262429     0.16900
C1184       C  0.55716885  0.74910974  0.59922066     0.26300
C1185       C  0.55269465  0.74864996  0.57962454    -0.40100
C1186       C  0.53359391  0.75203779  0.57421177     0.33300
C1187       C  0.51232734  0.77163273  0.62046889     0.01900
F1188       F  0.54882423  0.75600151  0.63130531    -0.12400
F1189       F  0.52857391  0.75123361  0.55550628    -0.12900
C1190       C  0.49285825  0.76665284  0.62183329     0.16900
C1191       C  0.48119344  0.77474241  0.63583537     0.26300
C1192       C  0.48889436  0.78682398  0.64986270    -0.40000
C1193       C  0.50778670  0.79313935  0.64755794     0.33200
C1194       C  0.51926499  0.78592704  0.63285247     0.14900
F1195       F  0.48549695  0.75253126  0.61097279    -0.12400
F1196       F  0.51574580  0.80474450  0.66082351    -0.12900
F1197       F  0.46289273  0.76865493  0.63750782    -0.15200
F1198       F  0.53751362  0.79227003  0.63137889    -0.13700
F1199       F  0.50325929  0.76520585  0.58077241    -0.13700
F1200       F  0.57537243  0.74589856  0.60509759    -0.15100
C1201       C  0.69575340  0.62872065  0.45514864     0.14900
C1202       C  0.68900808  0.61053046  0.45027416     0.01900
C1203       C  0.66970221  0.60625458  0.45411089     0.16900
C1204       C  0.65722726  0.62016417  0.46117579     0.26300
C1205       C  0.66360246  0.63882458  0.46451930    -0.40100
C1206       C  0.68331188  0.64253294  0.46247296     0.33300
C1207       C  0.70189532  0.59620539  0.44092853     0.01900
F1208       F  0.66264191  0.58876068  0.45023101    -0.12400
F1209       F  0.69006867  0.66031161  0.46552216    -0.12900
C1210       C  0.71928728  0.59076973  0.44953583     0.16900
C1211       C  0.73029095  0.57602313  0.44183731     0.26300
C1212       C  0.72414254  0.56597566  0.42552471    -0.40000
C1213       C  0.70758898  0.57242231  0.41606922     0.33200
C1214       C  0.69664978  0.58736100  0.42360193     0.14900
F1215       F  0.72488649  0.59864784  0.46631667    -0.12400
F1216       F  0.70097708  0.56300484  0.40052333    -0.12900
F1217       F  0.74581899  0.56986736  0.45169867    -0.15200
F1218       F  0.68045747  0.59267762  0.41431095    -0.13700
F1219       F  0.71404978  0.63366754  0.45123015    -0.13700
F1220       F  0.63836852  0.61598685  0.46264308    -0.15100
C1221       C  0.63117666  0.68554621  0.51678317     0.14900
C1222       C  0.61348672  0.67936910  0.52410958     0.01900
C1223       C  0.60545469  0.66263277  0.51658566     0.16900
C1224       C  0.61398960  0.65332748  0.50108918     0.26300
C1225       C  0.63070828  0.66054581  0.49259004    -0.40100
C1226       C  0.63957894  0.67634429  0.50116953     0.33300
C1227       C  0.60254490  0.69178544  0.53762461     0.01900
F1228       F  0.58864415  0.65595997  0.52342220    -0.12400
F1229       F  0.65520414  0.68428226  0.49298149    -0.12900
C1230       C  0.58469327  0.69940929  0.53218238     0.16900
C1231       C  0.57655997  0.71449065  0.54241719     0.26300
C1232       C  0.58613076  0.72242836  0.55823346    -0.40000
C1233       C  0.60283581  0.71338770  0.56488040     0.33200
C1234       C  0.61092612  0.69825572  0.55473669     0.14900
F1235       F  0.57610446  0.69370071  0.51574827    -0.12400
F1236       F  0.61252577  0.72066687  0.58003432    -0.12900
F1237       F  0.56068439  0.72301146  0.53529343    -0.15200
F1238       F  0.62772727  0.69082478  0.56090288    -0.13700
F1239       F  0.63937004  0.70172221  0.52341114    -0.13700
F1240       F  0.60469057  0.63848563  0.49291595    -0.15100
C1241       C  0.01814849  0.13829589  0.18829634     0.14900
C1242       C  0.01481292  0.11858514  0.18846900     0.01900
C1243       C  0.99792782  0.11182509  0.17961840     0.16900
C1244       C  0.98367859  0.12448704  0.17339935     0.26300
C1245       C  0.98593255  0.14411688  0.17589619    -0.40100
C1246       C  0.00383695  0.15088850  0.18216881     0.33300
C1247       C  0.02657559  0.10568633  0.20105329     0.01900
F1248       F  0.99410913  0.09297670  0.17907418    -0.12400
F1249       F  0.00644911  0.16971107  0.18501866    -0.12900
C1250       C  0.02890386  0.11007422  0.22055429     0.16900
C1251       C  0.03559306  0.09646472  0.23357734     0.26300
C1252       C  0.03958327  0.07786305  0.22770075    -0.40000
C1253       C  0.03934090  0.07405186  0.20798401     0.33200
C1254       C  0.03300859  0.08784742  0.19477309     0.14900
F1255       F  0.02247313  0.12677850  0.22752190    -0.12400
F1256       F  0.04284189  0.05622791  0.20175344    -0.12900
F1257       F  0.03523893  0.10058481  0.25247584    -0.15200
F1258       F  0.03184655  0.08326949  0.17601475    -0.13700
F1259       F  0.03454594  0.14545818  0.19585380    -0.13700
F1260       F  0.96663591  0.11745998  0.16728730    -0.15100
C1261       C  0.08719683  0.01732615  0.25155143     0.14900
C1262       C  0.09812823  0.02662844  0.26572908     0.01900
C1263       C  0.09350647  0.04570666  0.26971572     0.16900
C1264       C  0.07707372  0.05420903  0.26167306     0.26300
C1265       C  0.06517950  0.04410519  0.24900067    -0.40100
C1266       C  0.07145042  0.02622061  0.24284854     0.33300
C1267       C  0.11394542  0.01641558  0.27644029     0.01900
F1268       F  0.10440007  0.05591584  0.28207766    -0.12400
F1269       F  0.06050013  0.01617227  0.23039498    -0.12900
C1270       C  0.12739555  0.00528863  0.26670594     0.16900
C1271       C  0.14278146  0.99684194  0.27644729     0.26300
C1272       C  0.14635985  0.00068942  0.29587651    -0.40000
C1273       C  0.13217868  0.01036521  0.30601163     0.33200
C1274       C  0.11598436  0.01781499  0.29649919     0.14900
F1275       F  0.12684069  0.00406650  0.24742469    -0.12400
F1276       F  0.13498532  0.01430238  0.32474574    -0.12900
F1277       F  0.15595743  0.98722731  0.26624570    -0.15200
F1278       F  0.10270742  0.02710219  0.30686386    -0.13700
F1279       F  0.09051623  0.99892011  0.24733676    -0.13700
F1280       F  0.07159186  0.07150379  0.26792624    -0.15100
C1281       C  0.19118860  0.93347473  0.38877233     0.14900
C1282       C  0.19119495  0.93412430  0.36855075     0.01900
C1283       C  0.20467489  0.92268333  0.35916884     0.16900
C1284       C  0.21885625  0.91292423  0.36947000     0.26300
C1285       C  0.22085386  0.91509639  0.38936018    -0.40100
C1286       C  0.20607431  0.92440656  0.39902718     0.33300
C1287       C  0.17991412  0.94886689  0.35735652     0.01900
F1288       F  0.20582744  0.92273859  0.33986412    -0.12400
F1289       F  0.20725737  0.92669508  0.41820947    -0.12900
C1290       C  0.18007692  0.96797495  0.36326878     0.16900
C1291       C  0.17435914  0.98254438  0.35082585     0.26300
C1292       C  0.16943197  0.97876070  0.33167309    -0.40000
C1293       C  0.16697067  0.95969698  0.32638046     0.33200
C1294       C  0.17173309  0.94491928  0.33921782     0.14900
F1295       F  0.18802178  0.97300416  0.38023444    -0.12400
F1296       F  0.16208894  0.95534503  0.30813962    -0.12900
F1297       F  0.17665803  0.00076836  0.35659913    -0.15200
F1298       F  0.16960510  0.92675342  0.33333654    -0.13700
F1299       F  0.17755644  0.94277692  0.39866518    -0.13700
F1300       F  0.23267309  0.90383767  0.35960463    -0.15100
C1301       C  0.99111974  0.15692753  0.08009900     0.14900
C1302       C  0.98791001  0.15887118  0.06038144     0.01900
C1303       C  0.99964732  0.14912556  0.04761793     0.16900
C1304       C  0.01448522  0.13772640  0.05442564     0.26300
C1305       C  0.01784276  0.13585254  0.07416819    -0.40100
C1306       C  0.00593740  0.14545903  0.08695057     0.33300
C1307       C  0.97240187  0.17114460  0.05308198     0.01900
F1308       F  0.99649264  0.15038780  0.02852828    -0.12400
F1309       F  0.00901872  0.14423309  0.10604733    -0.12900
C1310       C  0.97668482  0.18699727  0.04169894     0.16900
C1311       C  0.96205699  0.19874955  0.03499150     0.26300
C1312       C  0.94297562  0.19487177  0.03966877    -0.40000
C1313       C  0.93864681  0.17880483  0.05069113     0.33200
C1314       C  0.95326292  0.16703707  0.05738942     0.14900
F1315       F  0.99509060  0.19135468  0.03753186    -0.12400
F1316       F  0.92024427  0.17447766  0.05486183    -0.12900
F1317       F  0.96655731  0.21435679  0.02458929    -0.15200
F1318       F  0.94874899  0.15149118  0.06788416    -0.13700
F1319       F  0.98017308  0.16650918  0.09268892    -0.13700
F1320       F  0.02517723  0.12806272  0.04168040    -0.15100
C1321       C  0.94204540  0.17288529  0.12067964     0.14900
C1322       C  0.94547569  0.19232411  0.11730799     0.01900
C1323       C  0.95787615  0.20195024  0.12989039     0.16900
C1324       C  0.96630406  0.19263671  0.14542773     0.26300
C1325       C  0.96082031  0.17409011  0.15024384    -0.40100
C1326       C  0.94930898  0.16400027  0.13720964     0.33300
C1327       C  0.93651173  0.20261242  0.10072441     0.01900
F1328       F  0.96027923  0.22091721  0.12835137    -0.12400
F1329       F  0.94339598  0.14620243  0.14158124    -0.12900
C1330       C  0.91687323  0.20082809  0.09621723     0.16900
C1331       C  0.90941183  0.20858763  0.07918624     0.26300
C1332       C  0.92122995  0.21889597  0.06677819    -0.40000
C1333       C  0.94002043  0.22296389  0.07276522     0.33200
C1334       C  0.94782441  0.21419340  0.08894070     0.14900
F1335       F  0.90508071  0.19086313  0.10781607    -0.12400
F1336       F  0.95168505  0.23309387  0.06117194    -0.12900
F1337       F  0.89121951  0.20440989  0.07386217    -0.15200
F1338       F  0.96693121  0.21549975  0.09198269    -0.13700
F1339       F  0.93095937  0.16268785  0.10847618    -0.13700
F1340       F  0.97742580  0.20272502  0.15765073    -0.15100
C1341       C  0.82695504  0.28243543  0.02808682     0.14900
C1342       C  0.84558802  0.28008153  0.02105737     0.01900
C1343       C  0.84943539  0.28631598  0.00236856     0.16900
C1344       C  0.83460921  0.29260799  0.99033891     0.26300
C1345       C  0.81558513  0.29279122  0.99664831    -0.40100
C1346       C  0.81213894  0.28886302  0.01603189     0.33300
C1347       C  0.86001455  0.26813325  0.03145750     0.01900
F1348       F  0.86711808  0.28405884  0.99492645    -0.12400
F1349       F  0.79393023  0.28858005  0.02253809    -0.12900
C1350       C  0.85609018  0.24881227  0.03476103     0.16900
C1351       C  0.87083097  0.23619223  0.03956882     0.26300
C1352       C  0.88985175  0.24252115  0.04118091    -0.40000
C1353       C  0.89345195  0.26212074  0.03988975     0.33200
C1354       C  0.87868602  0.27480966  0.03508123     0.14900
F1355       F  0.83839633  0.24169880  0.03110593    -0.12400
F1356       F  0.91167346  0.26868497  0.04102785    -0.12900
F1357       F  0.86693711  0.21734046  0.04002059    -0.15200
F1358       F  0.88293200  0.29340229  0.03246894    -0.13700
F1359       F  0.82275215  0.27691255  0.04612790    -0.13700
F1360       F  0.83840380  0.29571918  0.97163181    -0.15100
C1361       C  0.27651146  0.83634384  0.46025897     0.14900
C1362       C  0.26039527  0.84748260  0.46451987     0.01900
C1363       C  0.25150072  0.84453064  0.48221427     0.16900
C1364       C  0.25799432  0.83048386  0.49489294     0.26300
C1365       C  0.27316608  0.81837596  0.49004050    -0.40100
C1366       C  0.28276577  0.82195721  0.47284240     0.33300
C1367       C  0.25303856  0.86246222  0.45095431     0.01900
F1368       F  0.23560425  0.85441899  0.48666538    -0.12400
F1369       F  0.29709275  0.81038064  0.46738441    -0.12900
C1370       C  0.24929984  0.85866466  0.43150502     0.16900
C1371       C  0.24463741  0.87346014  0.41869222     0.26300
C1372       C  0.24334392  0.89231262  0.42505448    -0.40000
C1373       C  0.24443941  0.89551061  0.44486341     0.33200
C1374       C  0.25008686  0.88103592  0.45745092     0.14900
F1375       F  0.25112647  0.84080196  0.42468686    -0.12400
F1376       F  0.24316690  0.91347026  0.45157386    -0.12900
F1377       F  0.24376881  0.86976013  0.39973712    -0.15200
F1378       F  0.25479860  0.88564251  0.47563538    -0.13700
F1379       F  0.28590358  0.83896483  0.44361352    -0.13700
F1380       F  0.24811089  0.82727559  0.51116784    -0.15100
C1381       C  0.36142768  0.76116317  0.54568910     0.14900
C1382       C  0.35879462  0.78090624  0.54453077     0.01900
C1383       C  0.37343172  0.79284772  0.55123776     0.16900
C1384       C  0.39102011  0.78524103  0.55721663     0.26300
C1385       C  0.39433548  0.76552367  0.55666562    -0.40100
C1386       C  0.37899464  0.75354395  0.55173282     0.33300
C1387       C  0.34160308  0.78877552  0.53457697     0.01900
F1388       F  0.37131778  0.81193393  0.55038803    -0.12400
F1389       F  0.38169331  0.73458829  0.55044773    -0.12900
C1390       C  0.32696309  0.79772807  0.54471569     0.16900
C1391       C  0.30942479  0.80185907  0.53570920     0.26300
C1392       C  0.30623713  0.79720939  0.51639798    -0.40000
C1393       C  0.32161659  0.79003150  0.50588817     0.33200
C1394       C  0.33909398  0.78586818  0.51487410     0.14900
F1395       F  0.32899244  0.80086630  0.56370827    -0.12400
F1396       F  0.31890425  0.78459742  0.48751670    -0.12900
F1397       F  0.29472105  0.80819115  0.54643037    -0.15200
F1398       F  0.35315660  0.77766963  0.50459226    -0.13700
F1399       F  0.34735904  0.74925488  0.53969079    -0.13700
F1400       F  0.40558726  0.79727757  0.56154783    -0.15100
C1401       C  0.44979472  0.67763637  0.61719071     0.14900
C1402       C  0.44123358  0.69465143  0.62324562     0.01900
C1403       C  0.43915731  0.69739951  0.64301240     0.16900
C1404       C  0.44335990  0.68273029  0.65597272     0.26300
C1405       C  0.44861700  0.66460946  0.64947022    -0.40100
C1406       C  0.45327144  0.66271887  0.63012247     0.33300
C1407       C  0.43326675  0.70860332  0.60892367     0.01900
F1408       F  0.43130850  0.71354317  0.64975695    -0.12400
F1409       F  0.45874506  0.64562780  0.62332805    -0.12900
C1410       C  0.42171773  0.70228715  0.59359703     0.16900
C1411       C  0.41607768  0.71473639  0.57895256     0.26300
C1412       C  0.42119645  0.73400108  0.57944035    -0.40000
C1413       C  0.43091096  0.74073226  0.59574479     0.33200
C1414       C  0.43724918  0.72816563  0.61008641     0.14900
F1415       F  0.41654511  0.68378849  0.59229223    -0.12400
F1416       F  0.43645182  0.75915806  0.59650528    -0.12900
F1417       F  0.40728969  0.70757235  0.56323710    -0.15200
F1418       F  0.44869975  0.73491992  0.62419493    -0.13700
F1419       F  0.45353665  0.67494504  0.59847083    -0.13700
F1420       F  0.43941989  0.68527069  0.67470321    -0.15100
C1421       C  0.49787534  0.62879034  0.69130192     0.14900
C1422       C  0.50142181  0.60913209  0.68912346     0.01900
C1423       C  0.49139048  0.59969620  0.67436842     0.16900
C1424       C  0.47718535  0.60895798  0.66370370     0.26300
C1425       C  0.47137507  0.62746484  0.66829380    -0.40100
C1426       C  0.48267369  0.63770168  0.68138582     0.33300
C1427       C  0.51277706  0.59778767  0.70376538     0.01900
F1428       F  0.49349840  0.58080815  0.67163246    -0.12400
F1429       F  0.47773368  0.65563003  0.68614899    -0.12900
C1430       C  0.50983872  0.60065441  0.72345911     0.16900
C1431       C  0.51608964  0.58732291  0.73699517     0.26300
C1432       C  0.52427482  0.57004533  0.73136853    -0.40000
C1433       C  0.52921684  0.56801756  0.71208925     0.33200
C1434       C  0.52407117  0.58201060  0.69853418     0.14900
F1435       F  0.49886855  0.61513102  0.72969384    -0.12400
F1436       F  0.53709567  0.55159989  0.70600775    -0.12900
F1437       F  0.51140303  0.58996572  0.75555569    -0.15200
F1438       F  0.52905356  0.57941794  0.68006495    -0.13700
F1439       F  0.50828062  0.63915275  0.70394524    -0.13700
F1440       F  0.46700494  0.59876058  0.65071329    -0.15100
C1441       C  0.78280543  0.34666072  0.95579074     0.14900
C1442       C  0.76340360  0.35049681  0.95962443     0.01900
C1443       C  0.75399674  0.33861868  0.97275867     0.16900
C1444       C  0.76329769  0.32297184  0.98095993     0.26300
C1445       C  0.78168624  0.31764911  0.97502649    -0.40100
C1446       C  0.79170550  0.33025449  0.96314319     0.33300
C1447       C  0.75287263  0.36651281  0.94985438     0.01900
F1448       F  0.73514613  0.34098058  0.97624179    -0.12400
F1449       F  0.80937111  0.32558020  0.95696391    -0.12900
C1450       C  0.75412660  0.36959264  0.92996387     0.16900
C1451       C  0.74593241  0.38578054  0.92140819     0.26300
C1452       C  0.73578494  0.39894840  0.93237279    -0.40000
C1453       C  0.73241638  0.39450566  0.95163592     0.33200
C1454       C  0.74143859  0.37901872  0.96040861     0.14900
F1455       F  0.76393370  0.35735146  0.91886894    -0.12400
F1456       F  0.72242799  0.40673307  0.96258748    -0.12900
F1457       F  0.74958127  0.38961378  0.90282398    -0.15200
F1458       F  0.74040859  0.37735501  0.97961016    -0.13700
F1459       F  0.79294668  0.35831446  0.94421094    -0.13700
F1460       F  0.75326035  0.31126819  0.99257960    -0.15100
C1461       C  0.60267191  0.51034033  0.79908859     0.14900
C1462       C  0.60025230  0.50908991  0.77905716     0.01900
C1463       C  0.61329723  0.49774789  0.76903385     0.16900
C1464       C  0.62822257  0.48835443  0.77849493     0.26300
C1465       C  0.63217201  0.49179823  0.79787420    -0.40100
C1466       C  0.61873197  0.50223999  0.80826214     0.33300
C1467       C  0.58424390  0.51922537  0.76858879     0.01900
F1468       F  0.61277088  0.49708517  0.74974860    -0.12400
F1469       F  0.62195799  0.50586675  0.82699248    -0.12900
C1470       C  0.57916368  0.53812731  0.77287117     0.16900
C1471       C  0.56268648  0.54643624  0.76470666     0.26300
C1472       C  0.55136750  0.53642849  0.75146654    -0.40000
C1473       C  0.55817677  0.51883849  0.74505160     0.33200
C1474       C  0.57364423  0.50993192  0.75415902     0.14900
F1475       F  0.58962439  0.54834031  0.78558722    -0.12400
F1476       F  0.54773568  0.50885397  0.73211891    -0.12900
F1477       F  0.55659344  0.56339266  0.77130275    -0.15200
F1478       F  0.57690549  0.49145206  0.75014158    -0.13700
F1479       F  0.58980270  0.51980656  0.80979218    -0.13700
F1480       F  0.64053160  0.47785135  0.76812042    -0.15100
C1481       C  0.66430183  0.43402601  0.84055400     0.14900
C1482       C  0.66679314  0.44006267  0.85959340     0.01900
C1483       C  0.65914000  0.45784785  0.86458281     0.16900
C1484       C  0.65209012  0.47023078  0.85048204     0.26300
C1485       C  0.65322547  0.46553057  0.83106271    -0.40100
C1486       C  0.65768751  0.44666353  0.82642540     0.33300
C1487       C  0.68046089  0.42998455  0.87294892     0.01900
F1488       F  0.66083276  0.46446965  0.88266031    -0.12400
F1489       F  0.65874263  0.44145288  0.80783980    -0.12900
C1490       C  0.69895932  0.42528912  0.86661587     0.16900
C1491       C  0.71350011  0.42052973  0.87962989     0.26300
C1492       C  0.71023715  0.42077809  0.89936355    -0.40000
C1493       C  0.69137921  0.42336134  0.90564355     0.33200
C1494       C  0.67662196  0.42777712  0.89258938     0.14900
F1495       F  0.70379764  0.42762372  0.84805348    -0.12400
F1496       F  0.68775495  0.42412637  0.92461808    -0.12900
F1497       F  0.73157109  0.41848145  0.87308930    -0.15200
F1498       F  0.65895130  0.43142828  0.89940091    -0.13700
F1499       F  0.67024373  0.41657152  0.83523259    -0.13700
F1500       F  0.64750817  0.48817902  0.85553230    -0.15100
C1501       C  0.07329358  0.96072070  0.29275511     0.14900
C1502       C  0.05382669  0.96520911  0.29118370     0.01900
C1503       C  0.04018684  0.95256649  0.29846742     0.16900
C1504       C  0.04590716  0.93602708  0.30783903     0.26300
C1505       C  0.06546757  0.93179088  0.31012774    -0.40100
C1506       C  0.07907651  0.94422878  0.30222169     0.33300
C1507       C  0.04778426  0.98356802  0.28296972     0.01900
F1508       F  0.02129717  0.95675536  0.29743729    -0.12400
F1509       F  0.09802484  0.94059611  0.30382344    -0.12900
C1510       C  0.03518026  0.98420627  0.26728509     0.16900
C1511       C  0.02956712  0.00161035  0.25961066     0.26300
C1512       C  0.03651298  0.01857908  0.26746247    -0.40000
C1513       C  0.04850827  0.01800494  0.28356587     0.33200
C1514       C  0.05422815  0.00061332  0.29118928     0.14900
F1515       F  0.02865325  0.96798294  0.25914219    -0.12400
F1516       F  0.05459448  0.03427536  0.29193482    -0.12900
F1517       F  0.01785855  0.00192769  0.24409066    -0.15200
F1518       F  0.06582263  0.00038767  0.30679379    -0.13700
F1519       F  0.08672521  0.97247084  0.28530478    -0.13700
F1520       F  0.03223715  0.92493307  0.31577509    -0.15100
C1521       C  0.96273105  0.77520324  0.42758236     0.14900
C1522       C  0.97774645  0.76933541  0.41580783     0.01900
C1523       C  0.97928294  0.75009311  0.41101464     0.16900
C1524       C  0.96590491  0.73696342  0.41775863     0.26300
C1525       C  0.95062886  0.74297570  0.42902125    -0.40100
C1526       C  0.94919019  0.76212322  0.43401488     0.33300
C1527       C  0.99195981  0.78324728  0.40881857     0.01900
F1528       F  0.99382514  0.74406846  0.39993266    -0.12400
F1529       F  0.93461032  0.76813256  0.44507673    -0.12900
C1530       C  0.00308139  0.79362174  0.42185494     0.16900
C1531       C  0.01663036  0.80667166  0.41542219     0.26300
C1532       C  0.01936125  0.80966721  0.39573349    -0.40000
C1533       C  0.00766592  0.79974021  0.38269342     0.33200
C1534       C  0.99435013  0.78638489  0.38918100     0.14900
F1535       F  0.00101567  0.79089410  0.44090416    -0.12400
F1536       F  0.00930333  0.80265035  0.36365527    -0.12900
F1537       F  0.02663783  0.81677276  0.42858284    -0.15200
F1538       F  0.98367231  0.77659819  0.37628613    -0.13700
F1539       F  0.96094173  0.79369544  0.43247855    -0.13700
F1540       F  0.96747830  0.71846401  0.41288894    -0.15100
C1541       C  0.16564508  0.88232048  0.46360353     0.14900
C1542       C  0.16882698  0.90169343  0.46696586     0.01900
C1543       C  0.16020234  0.91512658  0.45495252     0.16900
C1544       C  0.14861862  0.90934203  0.43973245     0.26300
C1545       C  0.14525954  0.88995683  0.43636054    -0.40100
C1546       C  0.15376899  0.87649652  0.44856954     0.33300
C1547       C  0.18168280  0.90799368  0.48253638     0.01900
F1548       F  0.16326883  0.93391010  0.45779652    -0.12400
F1549       F  0.15088160  0.85769478  0.44579005    -0.12900
C1550       C  0.20110686  0.90323895  0.48213794     0.16900
C1551       C  0.21351746  0.90987075  0.49631982     0.26300
C1552       C  0.20663418  0.92082202  0.51134859    -0.40000
C1553       C  0.18723010  0.92557183  0.51188832     0.33200
C1554       C  0.17482719  0.91935323  0.49743323     0.14900
F1555       F  0.20802787  0.89242070  0.46783346    -0.12400
F1556       F  0.18033739  0.93610606  0.52643546    -0.12900
F1557       F  0.23229761  0.90551162  0.49563720    -0.15200
F1558       F  0.15607047  0.92405703  0.49815616    -0.13700
F1559       F  0.17399589  0.86905349  0.47492505    -0.13700
F1560       F  0.14022140  0.92279616  0.42869522    -0.15100
C1561       C  0.24484732  0.92843442  0.60513844     0.14900
C1562       C  0.26487452  0.93015858  0.60622077     0.01900
C1563       C  0.27565250  0.92529349  0.59019023     0.16900
C1564       C  0.26651683  0.92030007  0.57297776     0.26300
C1565       C  0.24638355  0.92028336  0.57132920    -0.40100
C1566       C  0.23568679  0.92359430  0.58786766     0.33300
C1567       C  0.27403318  0.93918360  0.62328024     0.01900
F1568       F  0.29498617  0.92669391  0.59080117    -0.12400
F1569       F  0.21637236  0.92444035  0.58680032    -0.12900
C1570       C  0.27813328  0.92859962  0.63977711     0.16900
C1571       C  0.28263316  0.93777762  0.65703861     0.26300
C1572       C  0.28293424  0.95773204  0.65821458    -0.40000
C1573       C  0.28069441  0.96816781  0.64122341     0.33200
C1574       C  0.27635849  0.95898195  0.62393203     0.14900
F1575       F  0.27625606  0.90946235  0.63954515    -0.12400
F1576       F  0.27998924  0.98735181  0.64182661    -0.01700
F1577       F  0.28429699  0.92724647  0.67318032    -0.15200
F1578       F  0.27262597  0.96957675  0.60817041    -0.13700
F1579       F  0.23407020  0.93302519  0.62043619    -0.13700
F1580       F  0.27734977  0.91741987  0.55727945    -0.15100
C1581       C  0.32906784  0.00988957  0.68889060     0.14900
C1582       C  0.33715909  0.00447201  0.70657593     0.01900
C1583       C  0.33020045  0.98786384  0.71524606     0.16900
C1584       C  0.31519516  0.97743334  0.70695315     0.26300
C1585       C  0.30574755  0.98393934  0.69039135    -0.40100
C1586       C  0.31337758  0.99990057  0.68105135     0.33300
C1587       C  0.35241930  0.01626338  0.71619929     0.01900
F1588       F  0.33662841  0.98271511  0.73273932    -0.12400
F1589       F  0.30447876  0.00692839  0.66534882    -0.12900
C1590       C  0.34986125  0.03581605  0.71941350     0.16900
C1591       C  0.36482661  0.04710276  0.72680436     0.26300
C1592       C  0.38285703  0.03924520  0.73084423    -0.40000
C1593       C  0.38471689  0.01940854  0.72943852     0.33200
C1594       C  0.36983571  0.00811772  0.72203438     0.14900
F1595       F  0.33303244  0.04416234  0.71477884    -0.12400
F1596       F  0.40196520  0.01132890  0.73258406    -0.12900
F1597       F  0.36245585  0.06613252  0.72775863    -0.15200
F1598       F  0.37319139  0.98949407  0.71880297    -0.13700
F1599       F  0.33578472  0.02539937  0.67960414    -0.13700
F1600       F  0.30803202  0.96231200  0.71655937    -0.15100
C1601       C  0.42919575  0.11441131  0.81642339     0.14900
C1602       C  0.43622143  0.10172440  0.80265645     0.01900
C1603       C  0.45573527  0.10304392  0.79794474     0.16900
C1604       C  0.46713043  0.11798171  0.80490724     0.26300
C1605       C  0.45924080  0.13235964  0.81626269    -0.40100
C1606       C  0.44055491  0.12962380  0.82305675     0.33300
C1607       C  0.42295040  0.08966030  0.79066731     0.01900
F1608       F  0.46324350  0.09135440  0.78464317    -0.12400
F1609       F  0.43242779  0.14310455  0.83406589    -0.12900
C1610       C  0.40794823  0.09823543  0.78028613     0.16900
C1611       C  0.39913035  0.08882672  0.76487215     0.26300
C1612       C  0.40515005  0.07068667  0.75925112    -0.40000
C1613       C  0.41828455  0.06119046  0.77118113     0.33200
C1614       C  0.42712448  0.07055832  0.78666219     0.14900
F1615       F  0.40349638  0.11665704  0.78336629    -0.12400
F1616       F  0.42486557  0.04394115  0.76602969    -0.12900
F1617       F  0.38677338  0.09861296  0.75359843    -0.15200
F1618       F  0.44111330  0.06152460  0.79657123    -0.13700
F1619       F  0.41081602  0.11300361  0.82225430    -0.13700
F1620       F  0.48499338  0.12021948  0.79781100    -0.15100
C1621       C  0.15462576  0.86654973  0.51455038     0.14900
C1622       C  0.17131255  0.85823648  0.52226023     0.01900
C1623       C  0.17273675  0.83830441  0.52159344     0.16900
C1624       C  0.15707986  0.82716780  0.51563617     0.26300
C1625       C  0.13945414  0.83556317  0.51086484    -0.40100
C1626       C  0.13893313  0.85535414  0.50894440     0.33300
C1627       C  0.18636524  0.87040076  0.53182671     0.01900
F1628       F  0.18847388  0.82939537  0.52847887    -0.12400
F1629       F  0.12226576  0.86397131  0.50423052    -0.12900
C1630       C  0.18110065  0.88455628  0.54494305     0.16900
C1631       C  0.19447482  0.89793956  0.55156950     0.26300
C1632       C  0.21354337  0.89753683  0.54549513    -0.40000
C1633       C  0.21935701  0.88191612  0.53452227     0.33200
C1634       C  0.20592095  0.86864655  0.52757219     0.14900
F1635       F  0.16268089  0.88618364  0.55055153    -0.12400
F1636       F  0.23761267  0.88110521  0.52823888    -0.12900
F1637       F  0.18819967  0.91291037  0.56180516    -0.15200
F1638       F  0.21183190  0.85511932  0.51533139    -0.13700
F1639       F  0.15299065  0.88565073  0.51352488    -0.13700
F1640       F  0.15819478  0.80805521  0.51724801    -0.15100
C1641       C  0.06452101  0.77315941  0.44377876     0.14900
C1642       C  0.08094947  0.78368892  0.43891817     0.01900
C1643       C  0.09019078  0.77933801  0.42178483     0.16900
C1644       C  0.08469773  0.76340836  0.41106749     0.26300
C1645       C  0.06997321  0.75131240  0.41738325    -0.40100
C1646       C  0.05905428  0.75713773  0.43307516     0.33300
C1647       C  0.08988520  0.79710369  0.45299866     0.01900
F1648       F  0.10551466  0.78967496  0.41622608    -0.12400
F1649       F  0.04483745  0.74582959  0.43969448    -0.12900
C1650       C  0.10768780  0.79280198  0.46151172     0.16900
C1651       C  0.11448735  0.80305942  0.47739888     0.26300
C1652       C  0.10361021  0.81783439  0.48514557    -0.40000
C1653       C  0.08676670  0.82328342  0.47540929     0.33200
C1654       C  0.07992648  0.81297429  0.45963057     0.14900
F1655       F  0.11761725  0.77744446  0.45563532    -0.12400
F1656       F  0.07593528  0.83755715  0.48236036    -0.12900
F1657       F  0.13050012  0.79702362  0.48653780    -0.15200
F1658       F  0.06296622  0.81781949  0.45154395    -0.13700
F1659       F  0.05501930  0.77709647  0.46008204    -0.13700
F1660       F  0.09540023  0.75836773  0.39585811    -0.15100
C1661       C  0.01018832  0.70457051  0.39065765     0.14900
C1662       C  0.01326261  0.70618279  0.37087424     0.01900
C1663       C  0.02992699  0.71572295  0.36479301     0.16900
C1664       C  0.04376676  0.72198292  0.37805572     0.26300
C1665       C  0.04120288  0.71919270  0.39774356    -0.40100
C1666       C  0.02364575  0.71160062  0.40385241     0.33300
C1667       C  0.99922798  0.69793384  0.35670198     0.01900
F1668       F  0.03316011  0.71848222  0.34592597    -0.12400
F1669       F  0.02041687  0.70920163  0.42275185    -0.12900
C1670       C  0.97952365  0.70161975  0.35816082     0.16900
C1671       C  0.96663328  0.69531934  0.34408213     0.26300
C1672       C  0.97308217  0.68597963  0.32764302    -0.40000
C1673       C  0.99251922  0.68118089  0.32674114     0.33200
C1674       C  0.00538757  0.68678578  0.34122932     0.14900
F1675       F  0.97286686  0.71277578  0.37233105    -0.12400
F1676       F  0.99933827  0.67249931  0.31098809    -0.12900
F1677       F  0.94806774  0.70061440  0.34516632    -0.15200
F1678       F  0.02403708  0.68189321  0.33972080    -0.13700
F1679       F  0.99486294  0.69485090  0.39731178    -0.13700
F1680       F  0.06051376  0.72916404  0.37157836    -0.15100
C1681       C  0.91810955  0.58927911  0.28452827     0.14900
C1682       C  0.92212646  0.60696743  0.27617013     0.01900
C1683       C  0.92017747  0.60884419  0.25627104     0.16900
C1684       C  0.91638147  0.59297749  0.24481197     0.26300
C1685       C  0.91462679  0.57482517  0.25295485    -0.40100
C1686       C  0.91444020  0.57333198  0.27300086     0.33300
C1687       C  0.93017289  0.62302997  0.28761411     0.01900
F1688       F  0.92342124  0.62585378  0.24779451    -0.12400
F1689       F  0.91319471  0.55599876  0.28132584    -0.12900
C1690       C  0.94899949  0.62931441  0.28438913     0.16900
C1691       C  0.95569958  0.64638441  0.29230406     0.26300
C1692       C  0.94367427  0.65761553  0.30353954    -0.40000
C1693       C  0.92544042  0.65044714  0.30813057     0.33200
C1694       C  0.91878637  0.63327189  0.30033427     0.14900
F1695       F  0.96048910  0.61952716  0.27245812    -0.12400
F1696       F  0.91333465  0.66109980  0.31861098    -0.12900
F1697       F  0.97305569  0.65307536  0.28697457    -0.15200
F1698       F  0.90063659  0.62752980  0.30388031    -0.13700
F1699       F  0.91955082  0.58705661  0.30371070    -0.13700
F1700       F  0.91706667  0.59493082  0.22556521    -0.15100
C1701       C  0.52640212  0.17828035  0.90296089     0.14900
C1702       C  0.51660062  0.18816278  0.88853282     0.01900
C1703       C  0.51641745  0.20808978  0.88932794     0.16900
C1704       C  0.52438642  0.21786811  0.90500122     0.26300
C1705       C  0.53300806  0.20789584  0.92012065    -0.40100
C1706       C  0.53464059  0.18804795  0.91846098     0.33300
C1707       C  0.50616395  0.17783140  0.87290820     0.01900
F1708       F  0.50792439  0.21802160  0.87513380    -0.12400
F1709       F  0.54277499  0.17797225  0.93285425    -0.12900
C1710       C  0.48604225  0.17707842  0.87246722     0.16900
C1711       C  0.47619005  0.16955616  0.85656039     0.26300
C1712       C  0.48620611  0.16300237  0.84056711    -0.40000
C1713       C  0.50631862  0.16238753  0.84176361     0.33200
C1714       C  0.51617314  0.16968061  0.85772626     0.14900
F1715       F  0.47591178  0.18467632  0.88696394    -0.12400
F1716       F  0.51646388  0.15667225  0.82642756    -0.12900
F1717       F  0.45687648  0.17084359  0.85575618    -0.15200
F1718       F  0.53554980  0.17016157  0.85766612    -0.13700
F1719       F  0.52701808  0.15907719  0.90262948    -0.13700
F1720       F  0.52219725  0.23690785  0.90624268    -0.15100
C1721       C  0.57603163  0.27190907  0.94018220     0.14900
C1722       C  0.59368578  0.26423253  0.94585963     0.01900
C1723       C  0.59602391  0.24442769  0.94488292     0.16900
C1724       C  0.58032159  0.23252342  0.94099639     0.26300
C1725       C  0.56204798  0.24019158  0.93806582    -0.40100
C1726       C  0.56041003  0.25998533  0.93618312     0.33300
C1727       C  0.60791151  0.27596978  0.95673075     0.01900
F1728       F  0.61285045  0.23645781  0.95021466    -0.12400
F1729       F  0.54292619  0.26781727  0.93354868    -0.12900
C1730       C  0.60256760  0.28392350  0.97430104     0.16900
C1731       C  0.61645978  0.29013213  0.98740058     0.26300
C1732       C  0.63599075  0.28861024  0.98325572    -0.40000
C1733       C  0.64123314  0.28289664  0.96479119     0.33200
C1734       C  0.62732029  0.27653775  0.95166058     0.14900
F1735       F  0.58402916  0.28349817  0.97982580    -0.12400
F1736       F  0.65998059  0.28100113  0.96042618    -0.12900
F1737       F  0.61092460  0.29501814  0.00522688    -0.15200
F1738       F  0.63294248  0.26945507  0.93464030    -0.13700
F1739       F  0.57336082  0.29092791  0.94057282    -0.13700
F1740       F  0.58235605  0.21352776  0.94316874    -0.15100
C1741       C  0.69137603  0.36729097  0.05050764     0.14900
C1742       C  0.69516553  0.36374747  0.03107296     0.01900
C1743       C  0.70830523  0.37568885  0.02179155     0.16900
C1744       C  0.71656807  0.39119718  0.03125722     0.26300
C1745       C  0.71081424  0.39616262  0.04977384    -0.40100
C1746       C  0.69892918  0.38346455  0.05966391     0.33300
C1747       C  0.68549386  0.34777791  0.02049368     0.01900
F1748       F  0.71177499  0.37346211  0.00295868    -0.12400
F1749       F  0.69288069  0.38788742  0.07742597    -0.12900
C1750       C  0.66560341  0.34463523  0.02177949     0.16900
C1751       C  0.65725764  0.32795016  0.01446809     0.26300
C1752       C  0.66846374  0.31440416  0.00516008    -0.40000
C1753       C  0.68750946  0.31922436  0.00099378     0.33200
C1754       C  0.69617034  0.33514351  0.00933830     0.14900
F1755       F  0.65438146  0.35720109  0.03100997    -0.12400
F1756       F  0.69854779  0.30682470  0.99136078    -0.12900
F1757       F  0.63871700  0.32402955  0.01835316    -0.15200
F1758       F  0.71540308  0.33697930  0.00818841    -0.13700
F1759       F  0.67964605  0.35558197  0.06042259    -0.13700
F1760       F  0.72809058  0.40311477  0.02134104    -0.15100
C1761       C  0.87118749  0.51320784  0.22645620     0.14900
C1762       C  0.86130474  0.52237435  0.21157683     0.01900
C1763       C  0.86650012  0.54122955  0.20719058     0.16900
C1764       C  0.88231318  0.54994671  0.21621468     0.26300
C1765       C  0.89329799  0.53999959  0.22976709    -0.40100
C1766       C  0.88678166  0.52198725  0.23558902     0.33300
C1767       C  0.84596068  0.51216705  0.20044623     0.01900
F1768       F  0.85678605  0.55093413  0.19352883    -0.12400
F1769       F  0.89702646  0.51198143  0.24864112    -0.12900
C1770       C  0.83027200  0.50382306  0.20974432     0.16900
C1771       C  0.81486770  0.49631669  0.19921060     0.26300
C1772       C  0.81444153  0.49741128  0.17914438    -0.40000
C1773       C  0.83099064  0.50378423  0.16985973     0.33200
C1774       C  0.84657684  0.51110263  0.18036441     0.14900
F1775       F  0.82896629  0.50455391  0.22902187    -0.12400
F1776       F  0.83107794  0.50507264  0.15055881    -0.12900
F1777       F  0.79903790  0.49050217  0.20863350    -0.15200
F1778       F  0.86186611  0.51807824  0.17083419    -0.13700
F1779       F  0.86674517  0.49509855  0.23108823    -0.13700
F1780       F  0.88818599  0.56725563  0.21015743    -0.15100
C1781       C  0.76578820  0.42263116  0.09534524     0.14900
C1782       C  0.75988925  0.43013450  0.11302326     0.01900
C1783       C  0.74015253  0.42980456  0.11700484     0.16900
C1784       C  0.72679909  0.42420670  0.10309106     0.26300
C1785       C  0.73257901  0.41969603  0.08448700    -0.40100
C1786       C  0.75226085  0.41777101  0.08110803     0.33300
C1787       C  0.77336946  0.44122023  0.12579262     0.01900
F1788       F  0.73343412  0.43719367  0.13347985    -0.12400
F1789       F  0.75842376  0.41340902  0.06335585    -0.12900
C1790       C  0.78467382  0.45595848  0.11811839     0.16900
C1791       C  0.79261929  0.47003561  0.12995842     0.26300
C1792       C  0.78900567  0.47017441  0.14966399    -0.40000
C1793       C  0.77997293  0.45418130  0.15761013     0.33200
C1794       C  0.77244088  0.43976055  0.14585985     0.14900
F1795       F  0.78598742  0.45829202  0.09895971    -0.12400
F1796       F  0.77594083  0.45389456  0.17649529    -0.12900
F1797       F  0.80108199  0.48530345  0.12172725    -0.15200
F1798       F  0.76261460  0.42531104  0.15405604    -0.13700
F1799       F  0.78465267  0.42137365  0.09130049    -0.13700
F1800       F  0.70791954  0.42623171  0.10685462    -0.15100
C1801       C  0.28233911  0.00013121  0.75170763     0.14900
C1802       C  0.28869326  0.01871422  0.74859376     0.01900
C1803       C  0.28780516  0.02650893  0.73018649     0.16900
C1804       C  0.28155953  0.01545455  0.71485530     0.26300
C1805       C  0.27634420  0.99646176  0.71777852    -0.40100
C1806       C  0.27625182  0.98899250  0.73636227     0.33300
C1807       C  0.29760881  0.02948323  0.76425368     0.01900
F1808       F  0.29324980  0.04472308  0.72708637    -0.12400
F1809       F  0.27130197  0.97063832  0.73947090    -0.12900
C1810       C  0.31753942  0.03121942  0.76513608     0.16900
C1811       C  0.32624266  0.04209731  0.77936980     0.26300
C1812       C  0.31508282  0.05106845  0.79322981    -0.40000
C1813       C  0.29506284  0.04872265  0.79268489     0.33200
C1814       C  0.28641366  0.03801595  0.77824775     0.14900
F1815       F  0.32854481  0.02208017  0.75232922    -0.12400
F1816       F  0.28374671  0.05748401  0.80553853    -0.12900
F1817       F  0.34557673  0.04362035  0.77975125    -0.15200
F1818       F  0.26710155  0.03629545  0.77767147    -0.13700
F1819       F  0.28275567  0.99263547  0.76951657    -0.13700
F1820       F  0.28083016  0.02316855  0.69712077    -0.15100
C1821       C  0.25507356  0.16693845  0.90763754     0.14900
C1822       C  0.24244113  0.15480593  0.91722008     0.01900
C1823       C  0.24717104  0.13565777  0.91961996     0.16900
C1824       C  0.26439311  0.12872681  0.91263838     0.26300
C1825       C  0.27718823  0.14085199  0.90310976    -0.40100
C1826       C  0.27229079  0.16003332  0.90057023     0.33300
C1827       C  0.22469482  0.16225148  0.92546112     0.01900
F1828       F  0.23524445  0.12374119  0.92905001    -0.12400
F1829       F  0.28369996  0.17195667  0.89054595    -0.12900
C1830       C  0.20677923  0.15564740  0.91913908     0.16900
C1831       C  0.19011847  0.16175840  0.92806041     0.26300
C1832       C  0.19127387  0.17429004  0.94354129    -0.40000
C1833       C  0.20910015  0.18153548  0.94923706     0.33200
C1834       C  0.22570010  0.17550558  0.94030958     0.14900
F1835       F  0.20548374  0.14319462  0.90446561    -0.12400
F1836       F  0.21048855  0.19366110  0.96417038    -0.12900
F1837       F  0.17291329  0.15531833  0.92176944    -0.15200
F1838       F  0.24283633  0.18193742  0.94675332    -0.13700
F1839       F  0.25051223  0.18540833  0.90479466    -0.13700
F1840       F  0.26865151  0.11019138  0.91545788    -0.15100
C1841       C  0.41223351  0.24414690  0.78578409     0.14900
C1842       C  0.42274944  0.22884912  0.79323515     0.01900
C1843       C  0.44279548  0.22994277  0.79372445     0.16900
C1844       C  0.45214460  0.24625691  0.78748206     0.26300
C1845       C  0.44155281  0.26181684  0.78104854    -0.40100
C1846       C  0.42161376  0.26059840  0.77982296     0.33300
C1847       C  0.41292117  0.21225902  0.80160733     0.01900
F1848       F  0.45326403  0.21557416  0.80112623    -0.12400
F1849       F  0.41125652  0.27556175  0.77342386    -0.12900
C1850       C  0.41738250  0.19384136  0.79567541     0.16900
C1851       C  0.40905020  0.17815626  0.80455689     0.26300
C1852       C  0.39577454  0.18060043  0.81935243    -0.40000
C1853       C  0.39118797  0.19915464  0.82508724     0.33200
C1854       C  0.39967323  0.21477161  0.81629052     0.14900
F1855       F  0.42959226  0.19106001  0.78101872    -0.12400
F1856       F  0.37806692  0.20239420  0.83880804    -0.12900
F1857       F  0.41421910  0.16060318  0.79877021    -0.15200
F1858       F  0.39512266  0.23242322  0.82236019    -0.13700
F1859       F  0.39289555  0.24324474  0.78456268    -0.13700
F1860       F  0.47150592  0.24713224  0.78830574    -0.15100
C1861       C  0.48828341  0.80907122  0.56356294     0.14900
C1862       C  0.50552871  0.81867869  0.56747371     0.01900
C1863       C  0.50487437  0.83723189  0.57462606     0.16900
C1864       C  0.48732857  0.84590525  0.57810005     0.26300
C1865       C  0.47009732  0.83621882  0.57434030    -0.40100
C1866       C  0.47074990  0.81775927  0.56695428     0.33300
C1867       C  0.52407659  0.80903125  0.56470530     0.01900
F1868       F  0.52124687  0.84712192  0.57785432    -0.12400
F1869       F  0.45440325  0.80789272  0.56350708    -0.12900
C1870       C  0.52840765  0.80064812  0.54709407     0.16900
C1871       C  0.54462139  0.78933910  0.54528187     0.26300
C1872       C  0.55672438  0.78629815  0.56100944    -0.40000
C1873       C  0.55326264  0.79576791  0.57817847     0.33200
C1874       C  0.53699865  0.80702525  0.58005616     0.14900
F1875       F  0.51658793  0.80291301  0.53182832    -0.12400
F1876       F  0.56502397  0.79318751  0.59342955    -0.12900
F1877       F  0.54780581  0.78026675  0.52856721    -0.15200
F1878       F  0.53324799  0.81497057  0.59721457    -0.13700
F1879       F  0.48836771  0.79109839  0.55676312    -0.13700
F1880       F  0.48723144  0.86402141  0.58452211    -0.15100
C1881       C  0.30869268  0.90125528  0.49624801     0.14900
C1882       C  0.31620953  0.89849376  0.47794275     0.01900
C1883       C  0.33489419  0.89158450  0.47614233     0.16900
C1884       C  0.34600380  0.88779974  0.49235630     0.26300
C1885       C  0.33866754  0.89101352  0.51069389    -0.40100
C1886       C  0.31983824  0.89764275  0.51246707     0.33300
C1887       C  0.30464873  0.90311802  0.46077900     0.01900
F1888       F  0.34265132  0.88915789  0.45864102    -0.12400
F1889       F  0.31208683  0.90038358  0.52992152    -0.12900
C1890       C  0.29711979  0.92140551  0.45833986     0.16900
C1891       C  0.28548209  0.92556395  0.44261614     0.26300
C1892       C  0.28122493  0.91153212  0.42907993    -0.40000
C1893       C  0.28954126  0.89355533  0.43094215     0.33200
C1894       C  0.30099980  0.88930606  0.44679709     0.14900
F1895       F  0.30103575  0.93523710  0.47121975    -0.12400
F1896       F  0.28639443  0.88007849  0.41751742    -0.12900
F1897       F  0.27778953  0.94311261  0.44094084    -0.15200
F1898       F  0.30812126  0.87156422  0.44878176    -0.13700
F1899       F  0.29046606  0.90733187  0.49841932    -0.13700
F1900       F  0.36424766  0.88188053  0.49002863    -0.15100
C1901       C  0.40058446  0.98928090  0.64125415     0.14900
C1902       C  0.40369609  0.98780614  0.66101476     0.01900
C1903       C  0.40456607  0.96976625  0.66952138     0.16900
C1904       C  0.40242761  0.95346792  0.65842328     0.26300
C1905       C  0.39911921  0.95495028  0.63869966    -0.40100
C1906       C  0.39819930  0.97298888  0.63019740     0.33300
C1907       C  0.40584604  0.00502411  0.67283370     0.01900
F1908       F  0.40706515  0.96795649  0.68865948    -0.12400
F1909       F  0.39563083  0.97484510  0.61107817    -0.12900
C1910       C  0.39125181  0.01864770  0.67326828     0.16900
C1911       C  0.39281663  0.03431741  0.68533567     0.26300
C1912       C  0.40883014  0.03638142  0.69730769    -0.40000
C1913       C  0.42372368  0.02320768  0.69636945     0.33200
C1914       C  0.42227057  0.00764295  0.68419439     0.14900
F1915       F  0.37518975  0.01639927  0.66253593    -0.12400
F1916       F  0.43932219  0.02503701  0.70784938    -0.12900
F1917       F  0.37853648  0.04723737  0.68566776    -0.15200
F1918       F  0.43681802  0.99501204  0.68361456    -0.13700
F1919       F  0.40026376  0.00650389  0.63260528    -0.13700
F1920       F  0.40297607  0.93624245  0.66703436    -0.15100
C1921       C  0.46127502  0.15200681  0.91838737     0.14900
C1922       C  0.45750062  0.16566597  0.93229077     0.01900
C1923       C  0.43867523  0.16879641  0.93801809     0.16900
C1924       C  0.42366503  0.15867655  0.92964709     0.26300
C1925       C  0.42723438  0.14525437  0.91520430    -0.40100
C1926       C  0.44632187  0.14183462  0.90993822     0.33300
C1927       C  0.47305013  0.17775667  0.93959372     0.01900
F1928       F  0.43484010  0.18183306  0.95164867    -0.12400
F1929       F  0.45070865  0.12844589  0.89687589    -0.12900
C1930       C  0.47319754  0.19707126  0.93492547     0.16900
C1931       C  0.48869043  0.20842346  0.94005530     0.26300
C1932       C  0.50418427  0.20054623  0.94996301    -0.40000
C1933       C  0.50371056  0.18146315  0.95552507     0.33200
C1934       C  0.48823631  0.17002648  0.95019434     0.14900
F1935       F  0.45870333  0.20464585  0.92459571    -0.12400
F1936       F  0.51852239  0.17381430  0.96543779    -0.12900
F1937       F  0.48887840  0.22697546  0.93489667    -0.15200
F1938       F  0.48817622  0.15140525  0.95504649    -0.13700
F1939       F  0.47945478  0.14892102  0.91258853    -0.13700
F1940       F  0.40566993  0.16250718  0.93545478    -0.15100
C1941       C  0.28058557  0.06172622  0.01199997     0.14900
C1942       C  0.27232054  0.05437914  0.99522435     0.01900
C1943       C  0.25722639  0.04130346  0.99654338     0.16900
C1944       C  0.25021210  0.03597529  0.01435267     0.26300
C1945       C  0.25809659  0.04374900  0.03103991    -0.40100
C1946       C  0.27350884  0.05642972  0.02982086     0.33300
C1947       C  0.27997208  0.05988157  0.97643194     0.01900
F1948       F  0.24909764  0.03395557  0.98056639    -0.12400
F1949       F  0.28165857  0.06364823  0.04586587    -0.12900
C1950       C  0.28794129  0.04615586  0.96448558     0.16900
C1951       C  0.29705172  0.05151923  0.94765077     0.26300
C1952       C  0.29842222  0.07078251  0.94252520    -0.40000
C1953       C  0.28951754  0.08440526  0.95406716     0.33200
C1954       C  0.28033288  0.07897249  0.97083397     0.14900
F1955       F  0.28789394  0.02762402  0.96970034    -0.12400
F1956       F  0.28996515  0.10305289  0.94932832    -0.12900
F1957       F  0.30567850  0.03792141  0.93719567    -0.15200
F1958       F  0.27204829  0.09239466  0.98179458    -0.13700
F1959       F  0.29573358  0.07374262  0.01107951    -0.13700
F1960       F  0.23528923  0.02369809  0.01534457    -0.15100
C1961       C  0.41895969  0.98840696  0.77095319     0.14900
C1962       C  0.41051007  0.98506409  0.78872086     0.01900
C1963       C  0.40910681  0.96638614  0.79554008     0.16900
C1964       C  0.41536017  0.95122298  0.78436909     0.26300
C1965       C  0.42303284  0.95457308  0.76620331    -0.40100
C1966       C  0.42502973  0.97329991  0.75970285     0.33300
C1967       C  0.40282444  0.00106479  0.79989911     0.01900
F1968       F  0.40216907  0.96295441  0.81323057    -0.12400
F1969       F  0.43242276  0.97691152  0.74222144    -0.12900
C1970       C  0.38310271  0.00252240  0.80298381     0.16900
C1971       C  0.37570248  0.01777226  0.81325050     0.26300
C1972       C  0.38795238  0.03175858  0.82093060    -0.40000
C1973       C  0.40776061  0.03022183  0.81771777     0.33200
C1974       C  0.41505956  0.01513554  0.80715115     0.14900
F1975       F  0.37095524  0.98929996  0.79573253    -0.12400
F1976       F  0.42026963  0.04276814  0.82550623    -0.12900
F1977       F  0.35649818  0.01894444  0.81537916    -0.15200
F1978       F  0.43419315  0.01397610  0.80443077    -0.13700
F1979       F  0.42113068  0.00634455  0.76443714    -0.13700
F1980       F  0.41428903  0.93334213  0.79142005    -0.15100
C1981       C  0.72029429  0.65177398  0.38643947     0.14900
C1982       C  0.70562594  0.66523399  0.38733402     0.01900
C1983       C  0.70528655  0.68030174  0.37426419     0.16900
C1984       C  0.71971394  0.68227000  0.36083820     0.26300
C1985       C  0.73477045  0.66916932  0.36024338    -0.40100
C1986       C  0.73477954  0.65370161  0.37294363     0.33300
C1987       C  0.69098610  0.66412029  0.40227658     0.01900
F1988       F  0.69088796  0.69311971  0.37449768    -0.12400
F1989       F  0.74920256  0.64091990  0.37285892    -0.12900
C1990       C  0.68908767  0.67910571  0.41526085     0.16900
C1991       C  0.67475565  0.67861580  0.42893671     0.26300
C1992       C  0.66227328  0.66308983  0.42989072    -0.40000
C1993       C  0.66416983  0.64803694  0.41704693     0.33200
C1994       C  0.67851560  0.64851423  0.40330749     0.14900
F1995       F  0.70127349  0.69411143  0.41478061    -0.12400
F1996       F  0.65211023  0.63296486  0.41782452    -0.12900
F1997       F  0.67320189  0.69314882  0.44146328    -0.15200
F1998       F  0.67998291  0.63400201  0.39075485    -0.13700
F1999       F  0.72095118  0.63718514  0.39907877    -0.13700
F2000       F  0.71871817  0.69682749  0.34819263    -0.15100
C2001       C  0.88861442  0.80490024  0.33454930     0.14900
C2002       C  0.88534034  0.79984987  0.31540980     0.01900
C2003       C  0.89613818  0.80845085  0.30098209     0.16900
C2004       C  0.91065061  0.82122905  0.30564614     0.26300
C2005       C  0.91459196  0.82551903  0.32478994    -0.40100
C2006       C  0.90320208  0.81772728  0.33921818     0.33300
C2007       C  0.87145172  0.78488107  0.31038293     0.01900
F2008       F  0.89293520  0.80403179  0.28239630    -0.12400
F2009       F  0.90677676  0.82190267  0.35778913    -0.12900
C2010       C  0.85190059  0.78746950  0.31350315     0.16900
C2011       C  0.83879054  0.77346018  0.30809335     0.26300
C2012       C  0.84506970  0.75651213  0.29961704    -0.40000
C2013       C  0.86475105  0.75397005  0.29662809     0.33200
C2014       C  0.87779274  0.76805424  0.30194743     0.14900
F2015       F  0.84549027  0.80372761  0.32147370    -0.12400
F2016       F  0.87153633  0.73758494  0.28928989    -0.12900
F2017       F  0.81991797  0.77667536  0.31084921    -0.15200
F2018       F  0.89673229  0.76511477  0.29924370    -0.13700
F2019       F  0.87834615  0.79670679  0.34870994    -0.13700
F2020       F  0.92159873  0.82862872  0.29154921    -0.15100
C2021       C  0.81281116  0.58027321  0.23615031     0.14900
C2022       C  0.80535728  0.58166822  0.21757356     0.01900
C2023       C  0.80051918  0.59957224  0.21019584     0.16900
C2024       C  0.80245139  0.61578546  0.22152230     0.26300
C2025       C  0.80911221  0.61424381  0.24041461    -0.40100
C2026       C  0.81461157  0.59640894  0.24749768     0.33300
C2027       C  0.80127623  0.56433618  0.20645490     0.01900
F2028       F  0.79288204  0.60118651  0.19241523    -0.12400
F2029       F  0.82149478  0.59457876  0.26555895    -0.12900
C2030       C  0.78790492  0.55106682  0.21322822     0.16900
C2031       C  0.78304780  0.53524338  0.20228432     0.26300
C2032       C  0.79162549  0.53235678  0.18454325    -0.40000
C2033       C  0.80527945  0.54535778  0.17790096     0.33200
C2034       C  0.81004371  0.56130405  0.18877954     0.14900
F2035       F  0.77907784  0.55379209  0.23016398    -0.12400
F2036       F  0.81353355  0.54290745  0.16064557    -0.12900
F2037       F  0.76985045  0.52277107  0.20890968    -0.15200
F2038       F  0.82309262  0.57386642  0.18204374    -0.13700
F2039       F  0.81797455  0.56318810  0.24342261    -0.13700
F2040       F  0.79655212  0.63272459  0.21448498    -0.15100
C2041       C  0.74550644  0.33006427  0.05191035     0.14900
C2042       C  0.74278023  0.31033097  0.05209960     0.01900
C2043       C  0.75771932  0.29863082  0.05840094     0.16900
C2044       C  0.77511800  0.30645145  0.06428263     0.26300
C2045       C  0.77791555  0.32623509  0.06414268    -0.40100
C2046       C  0.76285705  0.33795085  0.05793868     0.33300
C2047       C  0.72460840  0.30189139  0.04521581     0.01900
F2048       F  0.75527663  0.27956641  0.05938762    -0.12400
F2049       F  0.76491171  0.35706800  0.05752444    -0.12900
C2050       C  0.72479692  0.28825122  0.03063359     0.16900
C2051       C  0.70770524  0.28096029  0.02334493     0.26300
C2052       C  0.69018559  0.28760000  0.03009353    -0.40000
C2053       C  0.68987480  0.30069022  0.04510142     0.33200
C2054       C  0.70699971  0.30769901  0.05274039     0.14900
F2055       F  0.74150775  0.28271713  0.02274306    -0.12400
F2056       F  0.67300087  0.30707406  0.05192020    -0.12900
F2057       F  0.70820562  0.26847093  0.00867153    -0.15200
F2058       F  0.70639892  0.32030361  0.06730676    -0.13700
F2059       F  0.73145844  0.34174109  0.04562923    -0.13700
F2060       F  0.78880772  0.29457781  0.07097126    -0.15100
C2061       C  0.93708190  0.23029222  0.17676912     0.14900
C2062       C  0.92158644  0.22975448  0.16394647     0.01900
C2063       C  0.91376563  0.21219257  0.15856437     0.16900
C2064       C  0.92171180  0.19534045  0.16548342     0.26300
C2065       C  0.93759707  0.19587433  0.17780818    -0.40100
C2066       C  0.94497748  0.21344634  0.18372404     0.33300
C2067       C  0.91337712  0.24753582  0.15642696     0.01900
F2068       F  0.89846157  0.21142135  0.14659076    -0.12400
F2069       F  0.96049628  0.21421333  0.19541459    -0.12900
C2070       C  0.91566972  0.25261080  0.13720119     0.16900
C2071       C  0.90759204  0.26933977  0.13010191     0.26300
C2072       C  0.89698141  0.28119525  0.14212261    -0.40000
C2073       C  0.89475291  0.27600916  0.16140977     0.33200
C2074       C  0.90296946  0.25938350  0.16847891     0.14900
F2075       F  0.92585561  0.24142727  0.12535060    -0.12400
F2076       F  0.88392272  0.28654223  0.17329869    -0.12900
F2077       F  0.91042654  0.27409016  0.11156549    -0.15200
F2078       F  0.90030573  0.25452920  0.18701726    -0.13700
F2079       F  0.94492188  0.24712254  0.18203651    -0.13700
F2080       F  0.91414103  0.17849609  0.15992394    -0.15100
C2081       C  0.80673685  0.42308281  0.25055391     0.14900
C2082       C  0.80069262  0.43105044  0.23312469     0.01900
C2083       C  0.78760148  0.44608401  0.23321735     0.16900
C2084       C  0.78141901  0.45363431  0.25045543     0.26300
C2085       C  0.78845687  0.44645148  0.26779010    -0.40100
C2086       C  0.80063063  0.43073761  0.26779097     0.33300
C2087       C  0.80826676  0.42380364  0.21493970     0.01900
F2088       F  0.78152187  0.45406408  0.21664769    -0.12400
F2089       F  0.80697303  0.42315917  0.28446527    -0.12900
C2090       C  0.79579245  0.41713972  0.20067608     0.16900
C2091       C  0.80300460  0.40921318  0.18400694     0.26300
C2092       C  0.82286349  0.40773628  0.18134553    -0.40000
C2093       C  0.83531600  0.41483294  0.19546153     0.33200
C2094       C  0.82807883  0.42293835  0.21201971     0.14900
F2095       F  0.77660424  0.41741256  0.20330337    -0.12400
F2096       F  0.85453068  0.41374707  0.19335893    -0.12900
F2097       F  0.79050091  0.40179085  0.17115820    -0.15200
F2098       F  0.84046027  0.42978905  0.22531041    -0.13700
F2099       F  0.81870674  0.40801031  0.25084972    -0.13700
F2100       F  0.76954175  0.46878613  0.25023460    -0.15100
C2101       C  0.65050884  0.41967443  0.71736431     0.14900
C2102       C  0.65460953  0.42638902  0.73579663     0.01900
C2103       C  0.66558456  0.44293816  0.73808461     0.16900
C2104       C  0.67206589  0.45283497  0.72211621     0.26300
C2105       C  0.66746653  0.44640967  0.70373378    -0.40100
C2106       C  0.65690472  0.42965129  0.70141283     0.33300
C2107       C  0.64745545  0.41609864  0.75262679     0.01900
F2108       F  0.66956579  0.44973986  0.75576951    -0.12400
F2109       F  0.65284042  0.42297660  0.68370421    -0.12900
C2110       C  0.66032685  0.40838412  0.76593361     0.16900
C2111       C  0.65359007  0.39836425  0.78171308     0.26300
C2112       C  0.63382924  0.39589482  0.78440315    -0.40000
C2113       C  0.62096354  0.40370102  0.77108023     0.33200
C2114       C  0.62773588  0.41378841  0.75534040     0.14900
F2115       F  0.67945216  0.41010477  0.76332899    -0.12400
F2116       F  0.60182577  0.40190695  0.77350296    -0.12900
F2117       F  0.66643743  0.39041669  0.79388361    -0.15200
F2118       F  0.61505655  0.42154138  0.74286044    -0.13700
F2119       F  0.64046830  0.40336813  0.71486743    -0.13700
F2120       F  0.68226065  0.46904782  0.72453672    -0.15100
C2121       C  0.69257576  0.29784109  0.92121882     0.14900
C2122       C  0.70597732  0.31028198  0.92934747     0.01900
C2123       C  0.70238862  0.32984274  0.92927932     0.16900
C2124       C  0.68569940  0.33689181  0.92089438     0.26300
C2125       C  0.67225794  0.32443814  0.91269113    -0.40100
C2126       C  0.67584659  0.30482298  0.91296679     0.33300
C2127       C  0.72386592  0.30281888  0.93754780     0.01900
F2128       F  0.71503109  0.34208594  0.93738535    -0.12400
F2129       F  0.66375405  0.29242307  0.90429554    -0.12900
C2130       C  0.74154018  0.30835731  0.92995982     0.16900
C2131       C  0.75849396  0.30163726  0.93802744     0.26300
C2132       C  0.75794063  0.28954744  0.95391775    -0.40000
C2133       C  0.74029748  0.28339028  0.96102542     0.33200
C2134       C  0.72333429  0.28996338  0.95285664     0.14900
F2135       F  0.74232929  0.32018882  0.91469497    -0.12400
F2136       F  0.73954279  0.27178929  0.97647240    -0.12900
F2137       F  0.77545861  0.30709806  0.93052331    -0.15200
F2138       F  0.70639008  0.28424393  0.96022616    -0.13700
F2139       F  0.69606084  0.27894827  0.92062561    -0.13700
F2140       F  0.68266857  0.35587056  0.92082214    -0.15100
C2141       C  0.52553110  0.26064774  0.81701894     0.14900
C2142       C  0.52822511  0.24326934  0.82624784     0.01900
C2143       C  0.54255402  0.24143786  0.84017040     0.16900
C2144       C  0.55419163  0.25690633  0.84481843     0.26300
C2145       C  0.55141129  0.27454666  0.83575407    -0.40100
C2146       C  0.53685285  0.27623506  0.82188893     0.33300
C2147       C  0.51572448  0.22713029  0.82171355     0.01900
F2148       F  0.54538035  0.22457582  0.84908785    -0.12400
F2149       F  0.53327219  0.29307404  0.81330141    -0.12900
C2150       C  0.52054338  0.21449305  0.80717062     0.16900
C2151       C  0.50879193  0.19891224  0.80328584     0.26300
C2152       C  0.49226429  0.19574037  0.81408495    -0.40000
C2153       C  0.48720445  0.20873377  0.82827934     0.33200
C2154       C  0.49886971  0.22439442  0.83198885     0.14900
F2155       F  0.53658413  0.21730340  0.79677651    -0.12400
F2156       F  0.47068605  0.20662073  0.83805520    -0.12900
F2157       F  0.51362892  0.18677934  0.78915487    -0.15200
F2158       F  0.49372875  0.23705149  0.84548247    -0.13700
F2159       F  0.51195006  0.26246324  0.80323728    -0.13700
F2160       F  0.56851184  0.25436065  0.85769984    -0.15100
C2161       C  0.37520629  0.72268238  0.65287620     0.14900
C2162       C  0.36770377  0.70430991  0.65163703     0.01900
C2163       C  0.34794176  0.70168798  0.64951366     0.16900
C2164       C  0.33571906  0.71734453  0.64907952     0.26300
C2165       C  0.34317576  0.73583280  0.65080191    -0.40100
C2166       C  0.36310228  0.73831770  0.65239415     0.33300
C2167       C  0.38049558  0.68797317  0.65409065     0.01900
F2168       F  0.34048222  0.68394261  0.64847211    -0.12400
F2169       F  0.37097256  0.75589263  0.65334540    -0.12900
C2170       C  0.38518625  0.68176767  0.67254347     0.16900
C2171       C  0.39846852  0.66730203  0.67521885     0.26300
C2172       C  0.40736845  0.65899163  0.65947580    -0.40000
C2173       C  0.40213643  0.66468611  0.64094300     0.33200
C2174       C  0.38884013  0.67923893  0.63826846     0.14900
F2175       F  0.37723390  0.69010554  0.68797247    -0.12400
F2176       F  0.41005349  0.65631249  0.62553124    -0.12900
F2177       F  0.40327044  0.66191961  0.69321941    -0.15200
F2178       F  0.38438824  0.68509905  0.62033753    -0.13700
F2179       F  0.39428990  0.72545721  0.65494790    -0.13700
F2180       F  0.31659288  0.71434362  0.64790280    -0.15100
C2181       C  0.30297831  0.87033998  0.75053791     0.14900
C2182       C  0.30080260  0.89005765  0.75010783     0.01900
C2183       C  0.30061492  0.89961727  0.73251463     0.16900
C2184       C  0.30260697  0.88951243  0.71552306     0.26300
C2185       C  0.30487378  0.86973585  0.71593981    -0.40100
C2186       C  0.30497635  0.86023887  0.73362051     0.33300
C2187       C  0.29874076  0.90058140  0.76808271     0.01900
F2188       F  0.29877229  0.91874569  0.73184738    -0.12400
F2189       F  0.30616586  0.84107871  0.73456042    -0.12900
C2190       C  0.31364621  0.90064288  0.78160607     0.16900
C2191       C  0.31187262  0.91090519  0.79849380     0.26300
C2192       C  0.29522432  0.92128863  0.80193484    -0.40000
C2193       C  0.28004791  0.92065339  0.78877826     0.33200
C2194       C  0.28181451  0.91041070  0.77188932     0.14900
F2195       F  0.33006741  0.89113941  0.77817816    -0.12400
F2196       F  0.26381631  0.93055094  0.79201008    -0.12900
F2197       F  0.32649962  0.91102910  0.81129777    -0.15200
F2198       F  0.26705087  0.91008642  0.75922986    -0.13700
F2199       F  0.30265713  0.86080961  0.76737481    -0.13700
F2200       F  0.30267302  0.89906992  0.69870636    -0.15100
C2201       C  0.15352615  0.84029568  0.57103660     0.14900
C2202       C  0.16251031  0.82310552  0.57575899     0.01900
C2203       C  0.15498256  0.80605777  0.56854650     0.16900
C2204       C  0.13926195  0.80624884  0.55619790     0.26300
C2205       C  0.13101219  0.82346306  0.55063169    -0.40100
C2206       C  0.13786916  0.84047531  0.55847933     0.33300
C2207       C  0.18051610  0.82285249  0.58697551     0.01900
F2208       F  0.16360086  0.78930056  0.57250743    -0.12400
F2209       F  0.12985977  0.85723848  0.55341937    -0.12900
C2210       C  0.18210367  0.81165577  0.60352304     0.16900
C2211       C  0.19974907  0.80967705  0.61278764     0.26300
C2212       C  0.21593741  0.81909184  0.60578167    -0.40000
C2213       C  0.21425602  0.83080690  0.58969441     0.33200
C2214       C  0.19670265  0.83261246  0.58030631     0.14900
F2215       F  0.16654792  0.80265101  0.61066903    -0.12400
F2216       F  0.22981064  0.83990062  0.58264164    -0.12900
F2217       F  0.20099490  0.79882375  0.62875127    -0.15200
F2218       F  0.19571108  0.84332906  0.56428421    -0.13700
F2219       F  0.16018825  0.85687531  0.57829460    -0.13700
F2220       F  0.13289028  0.78970810  0.54858525    -0.15100
C2221       C  0.00678350  0.73396794  0.30222716     0.14900
C2222       C  0.00203494  0.74890244  0.31449866     0.01900
C2223       C  0.98340811  0.75007129  0.32170956     0.16900
C2224       C  0.96979905  0.73631757  0.31690970     0.26300
C2225       C  0.97474116  0.72118144  0.30505223    -0.40100
C2226       C  0.99320417  0.72017277  0.29756980     0.33300
C2227       C  0.01672933  0.76284795  0.32024759     0.01900
F2228       F  0.97849559  0.76446350  0.33346470    -0.12400
F2229       F  0.99810319  0.70567168  0.28594187    -0.12900
C2230       C  0.02584614  0.77409519  0.30650107     0.16900
C2231       C  0.04024282  0.78679386  0.31189408     0.26300
C2232       C  0.04586481  0.78834866  0.33116217    -0.40000
C2233       C  0.03680872  0.77687058  0.34486127     0.33200
C2234       C  0.02217244  0.76446615  0.33947205     0.14900
F2235       F  0.02076395  0.77278427  0.28782485    -0.12400
F2236       F  0.04175462  0.77791839  0.36357991    -0.12900
F2237       F  0.04917312  0.79694639  0.29811344    -0.15200
F2238       F  0.01345344  0.75382841  0.35302496    -0.13700
F2239       F  0.02474902  0.73242183  0.29527446    -0.13700
F2240       F  0.95199905  0.73737296  0.32430531    -0.15100
C2241       C  0.17813387  0.79987987  0.44913654     0.14900
C2242       C  0.19521411  0.80993811  0.45163771     0.01900
C2243       C  0.19798153  0.82700464  0.44184192     0.16900
C2244       C  0.18463357  0.83318616  0.42841779     0.26300
C2245       C  0.16778076  0.82261405  0.42490137    -0.40100
C2246       C  0.16439091  0.80628098  0.43614115     0.33300
C2247       C  0.21085445  0.80210397  0.46330195     0.01900
F2248       F  0.21397759  0.83748772  0.44497114    -0.12400
F2249       F  0.14792608  0.79624264  0.43462450    -0.12900
C2250       C  0.22849994  0.79836663  0.45472835     0.16900
C2251       C  0.24390824  0.79231475  0.46575912     0.26300
C2252       C  0.24193732  0.79014651  0.48550375    -0.40000
C2253       C  0.22405439  0.79277526  0.49397732     0.33200
C2254       C  0.20854483  0.79880767  0.48290544     0.14900
F2255       F  0.23084287  0.80085375  0.43568009    -0.12400
F2256       F  0.22193574  0.79055309  0.51307753    -0.12900
F2257       F  0.26088718  0.78890002  0.45724689    -0.15200
F2258       F  0.19158616  0.80230151  0.49141303    -0.13700
F2259       F  0.17508497  0.78341283  0.45870306    -0.13700
F2260       F  0.18883564  0.84917731  0.41857335    -0.15100
C2261       C  0.18139506  0.94645075  0.24947055     0.14900
C2262       C  0.17140726  0.92928925  0.24759260     0.01900
C2263       C  0.16767826  0.92185658  0.22939025     0.16900
C2264       C  0.17280446  0.93208425  0.21317259     0.26300
C2265       C  0.18161705  0.94984866  0.21505688    -0.40100
C2266       C  0.18656412  0.95666346  0.23321419     0.33300
C2267       C  0.16294136  0.92016044  0.26437429     0.01900
F2268       F  0.15850031  0.90499475  0.22740998    -0.12400
F2269       F  0.19528974  0.97374779  0.23515660    -0.12900
C2270       C  0.14311103  0.92080812  0.26673365     0.16900
C2271       C  0.13455292  0.91139578  0.28190526     0.26300
C2272       C  0.14575195  0.90131080  0.29513410    -0.40000
C2273       C  0.16576692  0.90107864  0.29303184     0.33200
C2274       C  0.17429478  0.91047014  0.27769236     0.14900
F2275       F  0.13202482  0.93056141  0.25423294    -0.12400
F2276       F  0.17699640  0.89100410  0.30518465    -0.12900
F2277       F  0.11529211  0.91220123  0.28365361    -0.15200
F2278       F  0.19350894  0.90957505  0.27544589    -0.13700
F2279       F  0.18509004  0.95379743  0.26699143    -0.13700
F2280       F  0.16869710  0.92494701  0.19565620    -0.15100
C2281       C  0.89018877  0.46212450  0.18176000     0.14900
C2282       C  0.90973980  0.46649632  0.18250419     0.01900
C2283       C  0.92273576  0.45516980  0.17262790     0.16900
C2284       C  0.91615139  0.44003100  0.16150353     0.26300
C2285       C  0.89642970  0.43611777  0.16007674    -0.40100
C2286       C  0.88356467  0.44715501  0.17055269     0.33300
C2287       C  0.91615953  0.48376407  0.19245176     0.01900
F2288       F  0.94167092  0.45938444  0.17297944    -0.12400
F2289       F  0.86451743  0.44360201  0.16981034    -0.12900
C2290       C  0.92750974  0.48268569  0.20900018     0.16900
C2291       C  0.93162225  0.49907927  0.21942416     0.26300
C2292       C  0.92474455  0.51671012  0.21315045    -0.40000
C2293       C  0.91465958  0.51790944  0.19582853     0.33200
C2294       C  0.91017667  0.50151323  0.18568042     0.14900
F2295       F  0.93414556  0.46575204  0.21530174    -0.12400
F2296       F  0.90925645  0.53495810  0.18869491    -0.12900
F2297       F  0.94168352  0.49767881  0.23599032    -0.15200
F2298       F  0.90001936  0.50289707  0.16917325    -0.13700
F2299       F  0.87746706  0.47265419  0.19164153    -0.13700
F2300       F  0.92897075  0.43002973  0.15122777    -0.15100
C2301       C  0.95872376  0.29963658  0.07291961     0.14900
C2302       C  0.96132451  0.29906795  0.05308347     0.01900
C2303       C  0.94778786  0.30773360  0.04106407     0.16900
C2304       C  0.93203978  0.31704230  0.04874486     0.26300
C2305       C  0.92958493  0.31792471  0.06864943    -0.40100
C2306       C  0.94303745  0.30898623  0.08063413     0.33300
C2307       C  0.97811893  0.28935725  0.04499759     0.01900
F2308       F  0.95016910  0.30774145  0.02186814    -0.12400
F2309       F  0.94090803  0.30906561  0.09985762    -0.12900
C2310       C  0.97563447  0.27442763  0.03196645     0.16900
C2311       C  0.99144458  0.26456799  0.02516750     0.26300
C2312       C  0.00989949  0.26923764  0.03159138    -0.40000
C2313       C  0.01248826  0.28460558  0.04401007     0.33200
C2314       C  0.99671476  0.29462830  0.05064949     0.14900
F2315       F  0.95784328  0.26882372  0.02652494    -0.12400
F2316       F  0.03028261  0.28970436  0.04990446    -0.12900
F2317       F  0.98867123  0.24971397  0.01320104    -0.15200
F2318       F  0.99956930  0.30941499  0.06269208    -0.13700
F2319       F  0.97129710  0.29093453  0.08484746    -0.13700
F2320       F  0.91976628  0.32594127  0.03666801    -0.15100
C2321       C  0.79666818  0.42791354  0.01537449     0.14900
C2322       C  0.78555410  0.41497804  0.00490079     0.01900
C2323       C  0.78402244  0.39616021  0.01120835     0.16900
C2324       C  0.79418024  0.39010362  0.02728359     0.26300
C2325       C  0.80596765  0.40280992  0.03738369    -0.40100
C2326       C  0.80681367  0.42189461  0.03153062     0.33300
C2327       C  0.77652661  0.42070167  0.98672697     0.01900
F2328       F  0.77296417  0.38355350  0.00153957    -0.12400
F2329       F  0.81843655  0.43444345  0.04061349    -0.12900
C2330       C  0.78272074  0.41264740  0.96956131     0.16900
C2331       C  0.77362381  0.41719305  0.95237422     0.26300
C2332       C  0.75804741  0.42962292  0.95220786    -0.40000
C2333       C  0.75239962  0.43834228  0.96922622     0.33200
C2334       C  0.76157730  0.43388266  0.98642268     0.14900
F2335       F  0.79750046  0.40026369  0.96952506    -0.12400
F2336       F  0.73734043  0.45038933  0.96929790    -0.12900
F2337       F  0.77977656  0.40922618  0.93595230    -0.15200
F2338       F  0.75539081  0.44180485  0.00286075    -0.13700
F2339       F  0.79849847  0.44611709  0.00935085    -0.13700
F2340       F  0.79269212  0.37173231  0.03282478    -0.15100
C2341       C  0.53496191  0.44804147  0.80801077     0.14900
C2342       C  0.54706731  0.46197730  0.80044457     0.01900
C2343       C  0.56692559  0.45968257  0.80180538     0.16900
C2344       C  0.57461761  0.44362168  0.81060911     0.26300
C2345       C  0.56252868  0.42960874  0.81828075    -0.40100
C2346       C  0.54258360  0.43201185  0.81689567     0.33300
C2347       C  0.53895836  0.47870557  0.79073236     0.01900
F2348       F  0.57885574  0.47285217  0.79427232    -0.12400
F2349       F  0.53037738  0.41932173  0.82482667    -0.12900
C2350       C  0.54188137  0.49693691  0.79820161     0.16900
C2351       C  0.53466174  0.51276089  0.78858729     0.26300
C2352       C  0.52461493  0.51052877  0.77133166    -0.40000
C2353       C  0.52123779  0.49228381  0.76414492     0.33200
C2354       C  0.52839186  0.47646414  0.77378387     0.14900
F2355       F  0.55160323  0.49935472  0.81484630    -0.12400
F2356       F  0.51169986  0.48987575  0.74739438    -0.12900
F2357       F  0.53748952  0.53027012  0.79605934    -0.15200
F2358       F  0.52552388  0.45896903  0.76630672    -0.13700
F2359       F  0.51571473  0.45020938  0.80718968    -0.13700
F2360       F  0.59388655  0.44163670  0.81131136    -0.15100
C2361       C  0.49647671  0.28508237  0.88279541     0.14900
C2362       C  0.49136259  0.28099717  0.90171361     0.01900
C2363       C  0.50293703  0.28793356  0.91664572     0.16900
C2364       C  0.51880329  0.29938386  0.91275773     0.26300
C2365       C  0.52382590  0.30358335  0.89378965    -0.40100
C2366       C  0.51271923  0.29587037  0.87887258     0.33300
C2367       C  0.47401637  0.26953981  0.90582703     0.01900
F2368       F  0.49890441  0.28361201  0.93506176    -0.12400
F2369       F  0.51753688  0.29867936  0.86037150    -0.12900
C2370       C  0.47105872  0.25202220  0.89674311     0.16900
C2371       C  0.45485241  0.24115053  0.90062234     0.26300
C2372       C  0.44149744  0.24739838  0.91397805    -0.40000
C2373       C  0.44432377  0.26483985  0.92310639     0.33200
C2374       C  0.46030586  0.27598256  0.91886255     0.14900
F2375       F  0.48414948  0.24516890  0.88447610    -0.12400
F2376       F  0.43147704  0.27113879  0.93599863    -0.12900
F2377       F  0.45257038  0.22420083  0.89180575    -0.15200
F2378       F  0.46222779  0.29318494  0.92727758    -0.13700
F2379       F  0.48544470  0.27909535  0.86800381    -0.13700
F2380       F  0.52876236  0.30683752  0.92763858    -0.15100
C2381       C  0.66250953  0.38731891  0.97118224     0.14900
C2382       C  0.66076745  0.40645902  0.97621873     0.01900
C2383       C  0.64995892  0.41865654  0.96463354     0.16900
C2384       C  0.64072958  0.41173136  0.94832636     0.26300
C2385       C  0.64212226  0.39244652  0.94345883    -0.40100
C2386       C  0.65318734  0.38033601  0.95496616     0.33300
C2387       C  0.66995466  0.41353633  0.99380052     0.01900
F2388       F  0.64781198  0.43711985  0.96950804    -0.12400
F2389       F  0.65510988  0.36177402  0.95041624    -0.12900
C2390       C  0.68508619  0.42659504  0.99281850     0.16900
C2391       C  0.69462810  0.43223699  0.00944535     0.26300
C2392       C  0.68908618  0.42493388  0.02721507    -0.40000
C2393       C  0.67323653  0.41273223  0.02828166     0.33200
C2394       C  0.66385607  0.40690244  0.01164333     0.14900
F2395       F  0.69102985  0.43332306  0.97570334    -0.12400
F2396       F  0.66687864  0.40646620  0.04541113    -0.12900
F2397       F  0.70981470  0.44416890  0.00814614    -0.15200
F2398       F  0.64880335  0.39479309  0.01288659    -0.13700
F2399       F  0.67329679  0.37542375  0.98198446    -0.13700
F2400       F  0.62967255  0.42369127  0.93787962    -0.15100
C2401       C  0.81143215  0.53611073  0.47495065     0.14900
C2402       C  0.80789936  0.54967592  0.48898039     0.01900
C2403       C  0.81923697  0.56603614  0.48992262     0.16900
C2404       C  0.83405094  0.56883197  0.47691859     0.26300
C2405       C  0.83782544  0.55518373  0.46276704    -0.40100
C2406       C  0.82628256  0.53872813  0.46202414     0.33300
C2407       C  0.79200946  0.54682820  0.50231193     0.01900
F2408       F  0.81590523  0.57931759  0.50344694    -0.12400
F2409       F  0.82950944  0.52483384  0.44914591    -0.12900
C2410       C  0.79383677  0.53407251  0.51758569     0.16900
C2411       C  0.77825592  0.53038173  0.52939650     0.26300
C2412       C  0.76073603  0.53946720  0.52607109    -0.40000
C2413       C  0.75900920  0.55235796  0.51087977     0.33200
C2414       C  0.77457603  0.55601941  0.49908013     0.14900
F2415       F  0.81064115  0.52506921  0.52086731    -0.12400
F2416       F  0.74208258  0.56083886  0.50702025    -0.12900
F2417       F  0.78021775  0.51793237  0.54406163    -0.15200
F2418       F  0.77249951  0.56799002  0.48405015    -0.13700
F2419       F  0.80034632  0.52032557  0.47371374    -0.13700
F2420       F  0.84428521  0.58515145  0.47795393    -0.15100
C2421       C  0.90196963  0.48561072  0.31046489     0.14900
C2422       C  0.91907456  0.47536795  0.31105030     0.01900
C2423       C  0.93301813  0.47954786  0.32484412     0.16900
C2424       C  0.92992533  0.49395732  0.33798615     0.26300
C2425       C  0.91279448  0.50427445  0.33747270    -0.40100
C2426       C  0.89879723  0.49998183  0.32368688     0.33300
C2427       C  0.92214619  0.45985964  0.29763934     0.01900
F2428       F  0.94942582  0.46939148  0.32578269    -0.12400
F2429       F  0.88232385  0.51001402  0.32274111    -0.12900
C2430       C  0.93460983  0.46224356  0.28225812     0.16900
C2431       C  0.93737224  0.44742756  0.26947224     0.26300
C2432       C  0.92775101  0.43014939  0.27208614    -0.40000
C2433       C  0.91581013  0.42759791  0.28784947     0.33200
C2434       C  0.91284470  0.44248082  0.30046222     0.14900
F2435       F  0.94383724  0.47897254  0.27953926    -0.12400
F2436       F  0.90734752  0.41060583  0.29120086    -0.12900
F2437       F  0.94905935  0.45003490  0.25432393    -0.15200
F2438       F  0.90113812  0.43991225  0.31559653    -0.13700
F2439       F  0.88848412  0.48174586  0.29699172    -0.13700
F2440       F  0.94338262  0.49741024  0.35159669    -0.15100
C2441       C  0.03293271  0.66303349  0.43577445     0.14900
C2442       C  0.02688141  0.65360844  0.41917418     0.01900
C2443       C  0.03535027  0.65819324  0.40161746     0.16900
C2444       C  0.04878789  0.67286658  0.40053092     0.26300
C2445       C  0.05386526  0.68304001  0.41697026    -0.40100
C2446       C  0.04640032  0.67761613  0.43468189     0.33300
C2447       C  0.01059670  0.64026018  0.41991738     0.01900
F2448       F  0.02975832  0.64924507  0.38538657    -0.12400
F2449       F  0.05116439  0.68735592  0.45070737    -0.12900
C2450       C  0.99259849  0.64666571  0.42580073     0.16900
C2451       C  0.97680300  0.63450280  0.42546412     0.26300
C2452       C  0.97873706  0.61577043  0.41908584    -0.40000
C2453       C  0.99688054  0.60924698  0.41364675     0.33200
C2454       C  0.01268075  0.62140209  0.41408179     0.14900
F2455       F  0.99016557  0.66497407  0.43110253    -0.12400
F2456       F  0.99935762  0.59104879  0.40800520    -0.12900
F2457       F  0.95944881  0.64137342  0.43035411    -0.15200
F2458       F  0.03002107  0.61478391  0.40878722    -0.13700
F2459       F  0.02524847  0.65855514  0.45292784    -0.13700
F2460       F  0.05613244  0.67777123  0.38335089    -0.15100
C2461       C  0.16903478  0.06275716  0.21328936     0.14900
C2462       C  0.15707193  0.05242796  0.22550388     0.01900
C2463       C  0.13779402  0.04984524  0.22050587     0.16900
C2464       C  0.13055635  0.05734952  0.20351944     0.26300
C2465       C  0.14242965  0.06780603  0.19124682    -0.40100
C2466       C  0.16177636  0.07046542  0.19631942     0.33300
C2467       C  0.16460682  0.04397469  0.24332110     0.01900
F2468       F  0.12599231  0.03976522  0.23197190    -0.12400
F2469       F  0.17352229  0.08109953  0.18527864    -0.12900
C2470       C  0.15703416  0.04926276  0.26102056     0.16900
C2471       C  0.16264550  0.03982147  0.27766750     0.26300
C2472       C  0.17570732  0.02483740  0.27677860    -0.40000
C2473       C  0.18419395  0.02035697  0.25930349     0.33200
C2474       C  0.17857991  0.02977176  0.24262971     0.14900
F2475       F  0.14396527  0.06335681  0.26209083    -0.12400
F2476       F  0.19711377  0.00613567  0.25826671    -0.12900
F2477       F  0.15507992  0.04503834  0.29460698    -0.15200
F2478       F  0.18602661  0.02435778  0.22568848    -0.13700
F2479       F  0.18762672  0.06577584  0.21805836    -0.13700
F2480       F  0.11199569  0.05396361  0.19890040    -0.15100
C2481       C  0.19029631  0.16943163  0.05168738     0.14900
C2482       C  0.20447424  0.15765669  0.04418393     0.01900
C2483       C  0.20190352  0.13794288  0.04471151     0.16900
C2484       C  0.18569928  0.13003267  0.05298243     0.26300
C2485       C  0.17175024  0.14170324  0.06104030    -0.40100
C2486       C  0.17402626  0.16151956  0.06010011     0.33300
C2487       C  0.22212188  0.16569988  0.03598671     0.01900
F2488       F  0.21521751  0.12628247  0.03734299    -0.12400
F2489       F  0.16113302  0.17319969  0.06828336    -0.12900
C2490       C  0.24001587  0.16085076  0.04379380     0.16900
C2491       C  0.25680983  0.16656822  0.03478173     0.26300
C2492       C  0.25588966  0.17718942  0.01789353    -0.40000
C2493       C  0.23810011  0.18300074  0.01070044     0.33200
C2494       C  0.22127166  0.17720754  0.01963211     0.14900
F2495       F  0.24116640  0.15017531  0.05988538    -0.12400
F2496       F  0.23706591  0.19324547  0.99433104    -0.12900
F2497       F  0.27394562  0.16116503  0.04210157    -0.15200
F2498       F  0.20417440  0.18190748  0.01172533    -0.13700
F2499       F  0.19262152  0.18852994  0.05160965    -0.13700
F2500       F  0.18370092  0.11089544  0.05319628    -0.15100
C2501       C  0.01234667  0.22473974  0.17725617     0.14900
C2502       C  0.02616984  0.22428302  0.16286864     0.01900
C2503       C  0.03291316  0.24136145  0.15505437     0.16900
C2504       C  0.02531613  0.25861277  0.16095617     0.26300
C2505       C  0.01048316  0.25894493  0.17429773    -0.40100
C2506       C  0.00446134  0.24196546  0.18285255     0.33300
C2507       C  0.03341930  0.20603923  0.15578706     0.01900
F2508       F  0.04686198  0.24128788  0.14171936    -0.12400
F2509       F  0.99036430  0.24201834  0.19602527    -0.12900
C2510       C  0.03033953  0.20080875  0.13669710     0.16900
C2511       C  0.03799154  0.18398884  0.12967569     0.26300
C2512       C  0.04883911  0.17212546  0.14165687    -0.40000
C2513       C  0.05161971  0.17727356  0.16089329     0.33200
C2514       C  0.04389802  0.19406341  0.16788657     0.14900
F2515       F  0.01999219  0.21207780  0.12483640    -0.12400
F2516       F  0.06279968  0.16673722  0.17268087    -0.12900
F2517       F  0.03487444  0.17934229  0.11113536    -0.15200
F2518       F  0.04736149  0.19906016  0.18627791    -0.13700
F2519       F  0.00600083  0.20846825  0.18539043    -0.13700
F2520       F  0.03229578  0.27497383  0.15353469    -0.15100
C2521       C  0.49397214  0.66751260  0.56981627     0.14900
C2522       C  0.49843860  0.68642486  0.56538659     0.01900
C2523       C  0.51774253  0.69190007  0.56413878     0.16900
C2524       C  0.53228108  0.67873299  0.56740372     0.26300
C2525       C  0.52776656  0.65985465  0.57199106    -0.40100
C2526       C  0.50845646  0.65437748  0.57309339     0.33300
C2527       C  0.48302394  0.70036111  0.56183234     0.01900
F2528       F  0.52252971  0.70991944  0.55932029    -0.12400
F2529       F  0.50349160  0.63611683  0.57667747    -0.12900
C2530       C  0.48272241  0.71754094  0.57194083     0.16900
C2531       C  0.46869612  0.73102546  0.56796743     0.26300
C2532       C  0.45439510  0.72728051  0.55444833    -0.40000
C2533       C  0.45437659  0.71007342  0.54456205     0.33200
C2534       C  0.46869120  0.69674028  0.54809278     0.14900
F2535       F  0.49588422  0.72113732  0.58578487    -0.12400
F2536       F  0.44056601  0.70627989  0.53141229    -0.12900
F2537       F  0.46906533  0.74788132  0.57713160    -0.15200
F2538       F  0.46880451  0.68050135  0.53777674    -0.13700
F2539       F  0.47554169  0.66165576  0.57093365    -0.13700
F2540       F  0.55074734  0.68455302  0.56646644    -0.15100
C2541       C  0.67183554  0.57583509  0.49660744     0.14900
C2542       C  0.66841384  0.55732183  0.49008326     0.01900
C2543       C  0.65272639  0.54705289  0.49690355     0.16900
C2544       C  0.64104421  0.55490899  0.51079511     0.26300
C2545       C  0.64474996  0.57325037  0.51772354    -0.40100
C2546       C  0.65988094  0.58387815  0.51018253     0.33300
C2547       C  0.68179284  0.54853770  0.47678552     0.01900
F2548       F  0.64921198  0.52917820  0.49065729    -0.12400
F2549       F  0.66370299  0.60157591  0.51672795    -0.12900
C2550       C  0.70039524  0.54426632  0.48294322     0.16900
C2551       C  0.71389654  0.53801420  0.46989881     0.26300
C2552       C  0.70887052  0.53611271  0.45060585    -0.40000
C2553       C  0.68992133  0.53903131  0.44472025     0.33200
C2554       C  0.67638777  0.54520195  0.45778545     0.14900
F2555       F  0.70547269  0.54653593  0.50151899    -0.12400
F2556       F  0.68469411  0.53630603  0.42625175    -0.12900
F2557       F  0.73208198  0.53475601  0.47585074    -0.15200
F2558       F  0.65824792  0.54861211  0.45178392    -0.13700
F2559       F  0.68703950  0.58588995  0.49013720    -0.13700
F2560       F  0.62619490  0.54455969  0.51762312    -0.15100
C2561       C  0.57151394  0.49749772  0.65612937     0.14900
C2562       C  0.55275000  0.49068530  0.65391452     0.01900
C2563       C  0.54027419  0.49975767  0.64110467     0.16900
C2564       C  0.54626696  0.51574824  0.63100682     0.26300
C2565       C  0.56488748  0.52287916  0.63352267    -0.40100
C2566       C  0.57757374  0.51346949  0.64593493     0.33300
C2567       C  0.54581173  0.47456014  0.66541515     0.01900
F2568       F  0.52227867  0.49301841  0.63833117    -0.12400
F2569       F  0.59557169  0.52018425  0.64875217    -0.12900
C2570       C  0.53114723  0.47733278  0.67865307     0.16900
C2571       C  0.52403027  0.46208904  0.68918251     0.26300
C2572       C  0.53158913  0.44389789  0.68675559    -0.40000
C2573       C  0.54622861  0.44106282  0.67348255     0.33200
C2574       C  0.55332547  0.45633847  0.66287734     0.14900
F2575       F  0.52393683  0.49490157  0.68155509    -0.12400
F2576       F  0.55346659  0.42350200  0.67066988    -0.12900
F2577       F  0.51012809  0.46515109  0.70218566    -0.15200
F2578       F  0.56719333  0.45332936  0.64982933    -0.13700
F2579       F  0.58372813  0.48905865  0.66861599    -0.13700
F2580       F  0.53399341  0.52400214  0.61845102    -0.15100
C2581       C  0.52653964  0.68754452  0.67033811     0.14900
C2582       C  0.52071821  0.70090549  0.65667292     0.01900
C2583       C  0.52424949  0.69753734  0.63735313     0.16900
C2584       C  0.53399300  0.68126003  0.63174862     0.26300
C2585       C  0.54060720  0.66808343  0.64542961    -0.40100
C2586       C  0.53638576  0.67125298  0.66481465     0.33300
C2587       C  0.51101551  0.71845433  0.66252397     0.01900
F2588       F  0.51857252  0.71025817  0.62392888    -0.12400
F2589       F  0.54244240  0.65912141  0.67859454    -0.12900
C2590       C  0.52155618  0.73360421  0.67024623     0.16900
C2591       C  0.51233414  0.75031949  0.67553655     0.26300
C2592       C  0.49246069  0.75193856  0.67342208    -0.40000
C2593       C  0.48191445  0.73672564  0.66585249     0.33200
C2594       C  0.49119113  0.72017475  0.66019093     0.14900
F2595       F  0.54076480  0.73220256  0.67253812    -0.12400
F2596       F  0.46266640  0.73795744  0.66394402    -0.12900
F2597       F  0.52272726  0.76485691  0.68292431    -0.15200
F2598       F  0.48089303  0.70570609  0.65259237    -0.13700
F2599       F  0.52288683  0.69042810  0.68908986    -0.13700
F2600       F  0.53685239  0.67843044  0.61287196    -0.15100
C2601       C  0.66592070  0.51570522  0.74447744     0.14900
C2602       C  0.65389516  0.53159376  0.74471807     0.01900
C2603       C  0.64806140  0.53898257  0.76236310     0.16900
C2604       C  0.65287343  0.52970338  0.77935405     0.26300
C2605       C  0.66382216  0.51314057  0.77890899    -0.40100
C2606       C  0.67098770  0.50665346  0.76149143     0.33300
C2607       C  0.64605122  0.53932947  0.72663981     0.01900
F2608       F  0.63727237  0.55489120  0.76306709    -0.12400
F2609       F  0.68163556  0.49064907  0.76086447    -0.12900
C2610       C  0.62618782  0.54023426  0.72390705     0.16900
C2611       C  0.61849859  0.54695636  0.70679704     0.26300
C2612       C  0.63049649  0.55328800  0.69206133    -0.40000
C2613       C  0.65046543  0.55209396  0.69469575     0.33200
C2614       C  0.65813632  0.54512632  0.71181252     0.14900
F2615       F  0.61412281  0.53435728  0.73777510    -0.12400
F2616       F  0.66267941  0.55835024  0.68112529    -0.12900
F2617       F  0.59922469  0.54696045  0.70462132    -0.15200
F2618       F  0.67739864  0.54458825  0.71411781    -0.13700
F2619       F  0.67178067  0.50824296  0.72771482    -0.13700
F2620       F  0.64637765  0.53650755  0.79617412    -0.15100
C2621       C  0.69792514  0.63338024  0.55717468     0.14900
C2622       C  0.69339120  0.64368765  0.54063335     0.01900
C2623       C  0.67423638  0.64548488  0.53500273     0.16900
C2624       C  0.65967886  0.63785720  0.54619992     0.26300
C2625       C  0.66411837  0.62795066  0.56309013    -0.40100
C2626       C  0.68342936  0.62549148  0.56828872     0.33300
C2627       C  0.70858198  0.65308162  0.52954427     0.01900
F2628       F  0.66967776  0.65508487  0.51886958    -0.12400
F2629       F  0.68832200  0.61630913  0.58461896    -0.12900
C2630       C  0.71168267  0.64803580  0.51046934     0.16900
C2631       C  0.72633751  0.65666240  0.50017164     0.26300
C2632       C  0.73796448  0.67047352  0.50874820    -0.40000
C2633       C  0.73453651  0.67598490  0.52759008     0.33200
C2634       C  0.71995594  0.66727804  0.53797927     0.14900
F2635       F  0.70095423  0.63428149  0.50209446    -0.12400
F2636       F  0.74554292  0.68950223  0.53599553    -0.12900
F2637       F  0.72960458  0.65121567  0.48197135    -0.15200
F2638       F  0.71686085  0.67272038  0.55624479    -0.13700
F2639       F  0.71642084  0.63111159  0.56264034    -0.13700
F2640       F  0.64126748  0.64013547  0.54048297    -0.15100
loop_ 
_geom_bond_atom_site_label_1 
_geom_bond_atom_site_label_2 
_geom_bond_distance 
_geom_bond_site_symmetry_2 
_ccdc_geom_bond_type 
N1            N2   1.320       .  A
N1            C5   1.342       .  A
N1           Cu9   2.068       .  S
N2            C3   1.347       .  A
N2           Cu8   2.076       .  S
C3            C4   1.391       .  A
C3            H6   1.081       .  S
C4            C5   1.387       .  A
C4         C2585   1.490       .  S
C5            H7   1.081       .  S
Cu8          N11   2.077       .  S
Cu9          N19   2.068       .  S
Cu10         N12   2.068       .  S
Cu10         N18   2.068       .  S
N11          N12   1.322       .  A
N11          C15   1.342       .  A
N12          C13   1.345       .  A
C13          C14   1.387       .  A
C13          H16   1.081       .  S
C14          C15   1.387       .  A
C14        C2612   1.486       .  S
C15          H17   1.081       .  S
N18          N19   1.321       .  A
N18          C22   1.344       .  A
N19          C20   1.343       .  A
C20          C21   1.385       .  A
C20          H23   1.082       .  S
C21          C22   1.385       .  A
C21        C2625   1.479       .  S
C22          H24   1.081       .  S
N25          N26   1.323       .  A
N25          C29   1.347       .  A
N25         Cu33   2.076       .  S
N26          C27   1.338       .  A
N26         Cu32   2.055       .  S
C27          C28   1.376       .  A
C27          H30   1.082       .  S
C28          C29   1.383       .  A
C28        C2545   1.466       .  S
C29          H31   1.082       .  S
Cu32         N35   2.054       .  S
Cu33         N43   2.077       .  S
Cu34         N36   2.065       .  S
Cu34         N42   2.065       .  S
N35          N36   1.319       .  A
N35          C39   1.344       .  A
N36          C37   1.343       .  A
C37          C38   1.385       .  A
C37          H40   1.082       .  S
C38          C39   1.383       .  A
C38        C2565   1.475       .  S
C39          H41   1.082       .  S
N42          N43   1.323       .  A
N42          C46   1.341       .  A
N43          C44   1.346       .  A
C44          C45   1.386       .  A
C44          H47   1.082       .  S
C45          C46   1.382       .  A
C45        C2525   1.478       .  S
C46          H48   1.082       .  S
N49          N50   1.322       .  A
N49          C53   1.341       .  A
N49         Cu57   2.067       .  S
N50          C51   1.346       .  A
N50         Cu56   2.069       .  S
C51          C52   1.384       .  A
C51          H54   1.082       .  S
C52          C53   1.382       .  A
C52        C2485   1.476       .  S
C53          H55   1.082       .  S
Cu56         N59   2.069       .  S
Cu57         N67   2.067       .  S
Cu58         N60   2.065       .  S
Cu58         N66   2.065       .  S
N59          N60   1.321       .  A
N59          C63   1.344       .  A
N60          C61   1.343       .  A
C61          C62   1.384       .  A
C61          H64   1.082       .  S
C62          C63   1.385       .  A
C62        C2512   1.478       .  S
C63          H65   1.082       .  S
N66          N67   1.320       .  A
N66          C70   1.342       .  A
N67          C68   1.345       .  A
C68          C69   1.386       .  A
C68          H71   1.080       .  S
C69          C70   1.385       .  A
C69        C2465   1.481       .  S
C70          H72   1.082       .  S
N73          N74   1.322       .  A
N73          C77   1.346       .  A
N73         Cu81   2.088       .  S
N74          C75   1.342       .  A
N74         Cu80   2.067       .  S
C75          C76   1.386       .  A
C75          H78   1.080       .  S
C76          C77   1.391       .  A
C76        C2405   1.490       .  S
C77          H79   1.081       .  S
Cu80         N83   2.066       .  S
Cu81         N91   2.087       .  S
Cu82         N84   2.045       .  S
Cu82         N90   2.046       .  S
N83          N84   1.319       .  A
N83          C87   1.345       .  A
N84          C85   1.339       .  A
C85          C86   1.378       .  A
C85          H88   1.082       .  S
C86          C87   1.384       .  A
C86        C2425   1.467       .  S
C87          H89   1.082       .  S
N90          N91   1.321       .  A
N90          C94   1.339       .  A
N91          C92   1.348       .  A
C92          C93   1.389       .  A
C92          H95   1.082       .  S
C93          C94   1.379       .  A
C93        C2452   1.477       .  S
C94          H96   1.082       .  S
N97          N98   1.322       .  A
N97         C101   1.345       .  A
N97        Cu105   2.074       .  S
N98          C99   1.342       .  A
N98        Cu104   2.063       .  S
C99         C100   1.381       .  A
C99         H102   1.079       .  S
C100        C101   1.385       .  A
C100       C2385   1.476       .  S
C101        H103   1.082       .  S
Cu104       N107   2.062       .  S
Cu105       N115   2.074       .  S
Cu106       N108   2.062       .  S
Cu106       N114   2.063       .  S
N107        N108   1.319       .  A
N107        C111   1.343       .  A
N108        C109   1.343       .  A
C109        C110   1.386       .  A
C109        H112   1.081       .  S
C110        C111   1.385       .  A
C110       C2345   1.481       .  S
C111        H113   1.082       .  S
N114        N115   1.321       .  A
N114        C118   1.340       .  A
N115        C116   1.346       .  A
C116        C117   1.388       .  A
C116        H119   1.080       .  S
C117        C118   1.385       .  A
C117       C2365   1.484       .  S
C118        H120   1.081       .  S
N121        N122   1.321       .  A
N121        C125   1.342       .  A
N121       Cu129   2.065       .  S
N122        C123   1.345       .  A
N122       Cu128   2.071       .  S
C123        C124   1.387       .  A
C123        H126   1.081       .  S
C124        C125   1.385       .  A
C124       C2305   1.482       .  S
C125        H127   1.082       .  S
Cu128       N131   2.071       .  S
Cu129       N139   2.065       .  S
Cu130       N132   2.067       .  S
Cu130       N138   2.067       .  S
N131        N132   1.322       .  A
N131        C135   1.343       .  A
N132        C133   1.344       .  A
C133        C134   1.384       .  A
C133        H136   1.081       .  S
C134        C135   1.384       .  A
C134       C2325   1.477       .  S
C135        H137   1.082       .  S
N138        N139   1.321       .  A
N138        C142   1.343       .  A
N139        C140   1.344       .  A
C140        C141   1.384       .  A
C140        H143   1.078       .  S
C141        C142   1.385       .  A
C141       C2285   1.479       .  S
C142        H144   1.082       .  S
N145        N146   1.321       .  A
N145        C149   1.342       .  A
N145       Cu153   2.067       .  S
N146        C147   1.342       .  A
N146       Cu152   2.054       .  S
C147        C148   1.382       .  A
C147        H150   1.081       .  S
C148        C149   1.385       .  A
C148       C2272   1.475       .  S
C149        H151   1.082       .  S
Cu152       N155   2.053       .  S
Cu153       N163   2.067       .  S
Cu154       N156   2.062       .  S
Cu154       N162   2.063       .  S
N155        N156   1.317       .  A
N155        C159   1.340       .  A
N156        C157   1.340       .  A
C157        C158   1.390       .  A
C157        H160   1.078       .  S
C158        C159   1.391       .  A
C158       C2245   1.491       .  S
C159        H161   1.078       .  S
N162        N163   1.321       .  A
N162        C166   1.342       .  A
N163        C164   1.343       .  A
C164        C165   1.386       .  A
C164        H167   1.082       .  S
C165        C166   1.385       .  A
C165       C2232   1.480       .  S
C166        H168   1.081       .  S
N169        N170   1.321       .  A
N169        C173   1.340       .  A
N169       Cu177   2.061       .  S
N170        C171   1.347       .  A
N170       Cu176   2.080       .  S
C171        C172   1.388       .  A
C171        H174   1.082       .  S
C172        C173   1.383       .  A
C172       C2165   1.482       .  S
C173        H175   1.082       .  S
Cu176       N179   2.081       .  S
Cu177       N187   2.060       .  S
Cu178       N180   2.063       .  S
Cu178       N186   2.063       .  S
N179        N180   1.324       .  A
N179        C183   1.346       .  A
N180        C181   1.343       .  A
C181        C182   1.378       .  A
C181        H184   1.082       .  S
C182        C183   1.383       .  A
C182       C2212   1.468       .  S
C183        H185   1.082       .  S
N186        N187   1.320       .  A
N186        C190   1.344       .  A
N187        C188   1.341       .  A
C188        C189   1.384       .  A
C188        H191   1.082       .  S
C189        C190   1.385       .  A
C189       C2185   1.476       .  S
C190        H192   1.082       .  S
N193        N194   1.321       .  A
N193        C197   1.343       .  A
N193       Cu201   2.063       .  S
N194        C195   1.341       .  A
N194       Cu200   2.061       .  S
C195        C196   1.384       .  A
C195        H198   1.081       .  S
C196        C197   1.384       .  A
C196       C2125   1.475       .  S
C197        H199   1.082       .  S
Cu200       N203   2.061       .  S
Cu201       N211   2.063       .  S
Cu202       N204   2.065       .  S
Cu202       N210   2.065       .  S
N203        N204   1.320       .  A
N203        C207   1.343       .  A
N204        C205   1.341       .  A
C205        C206   1.386       .  A
C205        H208   1.081       .  S
C206        C207   1.386       .  A
C206       C2145   1.482       .  S
C207        H209   1.081       .  S
N210        N211   1.321       .  A
N210        C214   1.344       .  A
N211        C212   1.340       .  A
C212        C213   1.381       .  A
C212        H215   1.085       .  S
C213        C214   1.384       .  A
C213       C2112   1.476       .  S
C214        H216   1.082       .  S
N217        N218   1.321       .  A
N217        C221   1.341       .  A
N217       Cu225   2.068       .  S
N218        C219   1.346       .  A
N218       Cu224   2.074       .  S
C219        C220   1.387       .  A
C219        H222   1.082       .  S
C220        C221   1.384       .  A
C220       C2072   1.483       .  S
C221        H223   1.079       .  S
Cu224       N227   2.073       .  S
Cu225       N235   2.067       .  S
Cu226       N228   2.062       .  S
Cu226       N234   2.061       .  S
N227        N228   1.321       .  A
N227        C231   1.343       .  A
N228        C229   1.342       .  A
C229        C230   1.384       .  A
C229        H232   1.082       .  S
C230        C231   1.387       .  A
C230       C2045   1.483       .  S
C231        H233   1.081       .  S
N234        N235   1.320       .  A
N234        C238   1.343       .  A
N235        C236   1.343       .  A
C236        C237   1.385       .  A
C236        H239   1.082       .  S
C237        C238   1.385       .  A
C237       C2092   1.479       .  S
C238        H240   1.082       .  S
N241        N242   1.321       .  A
N241        C245   1.347       .  A
N241       Cu249   2.089       .  S
N242        C243   1.340       .  A
N242       Cu248   2.051       .  S
C243        C244   1.380       .  A
C243        H246   1.082       .  S
C244        C245   1.391       .  A
C244       C2012   1.482       .  S
C245        H247   1.081       .  S
Cu248       N251   2.051       .  S
Cu249       N259   2.089       .  S
Cu250       N252   2.057       .  S
Cu250       N258   2.058       .  S
N251        N252   1.318       .  A
N251        C255   1.340       .  A
N252        C253   1.344       .  A
C253        C254   1.385       .  A
C253        H256   1.082       .  S
C254        C255   1.383       .  A
C254       C1985   1.475       .  S
C255        H257   1.082       .  S
N258        N259   1.323       .  A
N258        C262   1.339       .  A
N259        C260   1.350       .  A
C260        C261   1.388       .  A
C260        H263   1.082       .  S
C261        C262   1.378       .  A
C261       C2025   1.476       .  S
C262        H264   1.082       .  S
N265        N266   1.319       .  A
N265        C269   1.340       .  A
N265       Cu273   2.050       .  S
N266        C267   1.345       .  A
N266       Cu272   2.077       .  S
C267        C268   1.392       .  A
C267        H270   1.081       .  S
C268        C269   1.384       .  A
C268       C1925   1.487       .  S
C269        H271   1.080       .  S
Cu272       N275   2.079       .  S
Cu273       N283   2.049       .  S
Cu274       N276   2.082       .  S
Cu274       N282   2.081       .  S
N275        N276   1.322       .  A
N275        C279   1.345       .  A
N276        C277   1.345       .  A
C277        C278   1.388       .  A
C277        H280   1.081       .  S
C278        C279   1.389       .  A
C278       C1972   1.490       .  S
C279        H281   1.082       .  S
N282        N283   1.319       .  A
N282        C286   1.345       .  A
N283        C284   1.341       .  A
C284        C285   1.383       .  A
C284        H287   1.082       .  S
C285        C286   1.390       .  A
C285       C1952   1.482       .  S
C286        H288   1.075       .  S
N289        N290   1.322       .  A
N289        C293   1.345       .  A
N289       Cu297   2.075       .  S
N290        C291   1.344       .  A
N290       Cu296   2.070       .  S
C291        C292   1.384       .  A
C291        H294   1.082       .  S
C292        C293   1.385       .  A
C292       C1865   1.478       .  S
C293        H295   1.082       .  S
Cu296       N299   2.070       .  S
Cu297       N307   2.075       .  S
Cu298       N300   2.067       .  S
Cu298       N306   2.067       .  S
N299        N300   1.321       .  A
N299        C303   1.345       .  A
N300        C301   1.343       .  A
C301        C302   1.383       .  A
C301        H304   1.082       .  S
C302        C303   1.384       .  A
C302       C1905   1.475       .  S
C303        H305   1.082       .  S
N306        N307   1.321       .  A
N306        C310   1.343       .  A
N307        C308   1.345       .  A
C308        C309   1.387       .  A
C308        H311   1.082       .  S
C309        C310   1.384       .  A
C309       C1885   1.481       .  S
C310        H312   1.082       .  S
N313        N314   1.320       .  A
N313        C317   1.341       .  A
N313       Cu321   2.057       .  S
N314        C315   1.344       .  A
N314       Cu320   2.071       .  S
C315        C316   1.387       .  A
C315        H318   1.082       .  S
C316        C317   1.383       .  A
C316       C1812   1.478       .  S
C317        H319   1.082       .  S
Cu320       N323   2.071       .  S
Cu321       N331   2.057       .  S
Cu322       N324   2.069       .  S
Cu322       N330   2.070       .  S
N323        N324   1.321       .  A
N323        C327   1.342       .  A
N324        C325   1.343       .  A
C325        C326   1.388       .  A
C325        H328   1.081       .  S
C326        C327   1.386       .  A
C326       C1852   1.484       .  S
C327        H329   1.081       .  S
N330        N331   1.320       .  A
N330        C334   1.345       .  A
N331        C332   1.341       .  A
C332        C333   1.383       .  A
C332        H335   1.082       .  S
C333        C334   1.387       .  A
C333       C1825   1.479       .  S
C334        H336   1.082       .  S
N337        C341   1.359       .  A
N337        C338   1.368       .  A
N337       C1772   1.447       .  S
C338        C339   1.386       .  A
C338       C1792   1.488       .  S
C339        C340   1.370       .  A
C339        H342   1.083       .  S
C340        C341   1.375       .  A
C340        H343   1.082       .  S
C341       C2032   1.475       .  S
N344        C348   1.362       .  A
N344        C345   1.367       .  A
N344       C1745   1.448       .  S
C345        C346   1.387       .  A
C345       C1785   1.489       .  S
C346        C347   1.370       .  A
C346        H349   1.083       .  S
C347        C348   1.375       .  A
C347        H350   1.082       .  S
C348       C2392   1.478       .  S
N351        C355   1.358       .  A
N351        C352   1.364       .  A
N351       C1705   1.450       .  S
C352        C353   1.387       .  A
C352       C1725   1.482       .  S
C353        C354   1.371       .  A
C353        H356   1.083       .  S
C354        C355   1.375       .  A
C354        H357   1.082       .  S
C355       C1932   1.466       .  S
N358        C362   1.360       .  A
N358        C359   1.363   1_554  A
N358       C1752   1.449       .  S
C359        C360   1.386   1_556  A
C359       C1732   1.483       .  S
C360        C361   1.372       .  A
C360        H363   1.083       .  S
C361        C362   1.376       .  A
C361        H364   1.082       .  S
C362       C2052   1.473       .  S
N365        C369   1.362       .  A
N365        C366   1.366       .  A
N365       C1765   1.451       .  S
C366        C367   1.385       .  A
C366       C1685   1.484       .  S
C367        C368   1.370       .  A
C367        H370   1.083       .  S
C368        C369   1.376       .  A
C368        H371   1.082       .  S
C369       C2292   1.475       .  S
N372        C376   1.357       .  A
N372        C373   1.366       .  A
N372       C1672   1.448       .  S
C373        C374   1.388       .  A
C373       C1692   1.488       .  S
C374        C375   1.372       .  A
C374        H377   1.083       .  S
C375        C376   1.375       .  A
C375        H378   1.082       .  S
C376       C2225   1.472       .  S
N379        C383   1.361       .  A
N379        C380   1.367       .  A
N379       C1665   1.451       .  S
C380        C381   1.388       .  A
C380       C1645   1.490       .  S
C381        C382   1.371       .  A
C381        H384   1.083       .  S
C382        C383   1.374       .  A
C382        H385   1.082       .  S
C383       C2445   1.473       .  S
N386        C390   1.359       .  A
N386        C387   1.368       .  A
N386       C1625   1.448       .  S
C387        C388   1.390       .  A
C387       C1652   1.496       .  S
C388        C389   1.373       .  A
C388        H391   1.082       .  S
C389        C390   1.374       .  A
C389        H392   1.082       .  S
C390       C2205   1.475       .  S
N393        C397   1.361       .  A
N393        C394   1.370       .  A
N393       C1712   1.451       .  S
C394        C395   1.386       .  A
C394       C1605   1.489       .  S
C395        C396   1.368       .  A
C395        H398   1.083       .  S
C396        C397   1.375       .  A
C396        H399   1.082       .  S
C397       C2152   1.475       .  S
N400        C404   1.361       .  A
N400        C401   1.371       .  A
N400       C1592   1.453       .  S
C401        C402   1.388       .  A
C401       C1612   1.493       .  S
C402        C403   1.369       .  A
C402        H405   1.083       .  S
C403        C404   1.374       .  A
C403        H406   1.082       .  S
C404       C1912   1.475       .  S
N407        C411   1.358       .  A
N407        C408   1.369       .  A
N407       C1632   1.447       .  S
C408        C409   1.388       .  A
C408       C1565   1.492       .  S
C409        C410   1.373       .  A
C409        H412   1.083       .  S
C410        C411   1.375       .  A
C410        H413   1.082       .  S
C411       C1552   1.475       .  S
N414        C418   1.361       .  A
N414        C415   1.368       .  A
N414       C1585   1.451       .  S
C415        C416   1.386       .  A
C415       C1572   1.488       .  S
C416        C417   1.371       .  A
C416        H419   1.083       .  S
C417        C418   1.376       .  A
C417        H420   1.082       .  S
C418       C1805   1.476       .  S
N421        N422   1.321       .  A
N421        C425   1.349       .  A
N421       Cu429   2.086       .  S
N422        C423   1.341       .  A
N422       Cu428   2.065       .  S
C423        C424   1.385       .  A
C423        H426   1.081       .  S
C424        C425   1.391       .  A
C424       C1532   1.487       .  S
C425        H427   1.080       .  S
Cu428       N431   2.064       .  S
Cu429       N439   2.086       .  S
Cu430       N432   2.073       .  S
Cu430       N438   2.073       .  S
N431        N432   1.320       .  A
N431        C435   1.344       .  A
N432        C433   1.344       .  A
C433        C434   1.387       .  A
C433        H436   1.082       .  S
C434        C435   1.385       .  A
C434       C1545   1.481       .  S
C435        H437   1.082       .  S
N438        N439   1.323       .  A
N438        C442   1.345       .  A
N439        C440   1.344       .  A
C440        C441   1.385       .  A
C440        H443   1.083       .  S
C441        C442   1.386       .  A
C441       C1505   1.486       .  S
C442        H444   1.082       .  S
N445        C449   1.363       .  A
N445        C446   1.367       .  A
N445       C1465   1.452       .  S
C446        C447   1.386       .  A
C446       C1485   1.486       .  S
C447        C448   1.369       .  A
C447        H450   1.083       .  S
C448        C449   1.375       .  A
C448        H451   1.082       .  S
C449       C2605   1.475       .  S
N452        C456   1.362       .  A
N452        C453   1.366       .  A
N452       C1452   1.451       .  S
C453        C454   1.386       .  A
C453       C1492   1.486       .  S
C454        C455   1.371       .  A
C454        H457   1.083       .  S
C455        C456   1.376       .  A
C455        H458   1.082       .  S
C456       C2332   1.475       .  S
N459        C463   1.364       .  A
N459        C460   1.371       .  A
N459       C1405   1.451       .  S
C460        C461   1.389       .  A
C460       C1425   1.498       .  S
C461        C462   1.368       .  A
C461        H464   1.083       .  S
C462        C463   1.373       .  A
C462        H465   1.082       .  S
C463       C2172   1.478       .  S
N466        C470   1.362       .  A
N466        C467   1.370       .  A
N466       C1472   1.451       .  S
C467        C468   1.389       .  A
C467       C1432   1.496       .  S
C468        C469   1.370       .  A
C468        H471   1.083       .  S
C469        C470   1.373       .  A
C469        H472   1.082       .  S
C470       C2352   1.477       .  S
N473        C477   1.357       .  A
N473        C474   1.368       .  A
N473       C1412   1.448       .  S
C474        C475   1.388       .  A
C474       C1385   1.490       .  S
C475        C476   1.372       .  A
C475        H478   1.083       .  S
C476        C477   1.374       .  A
C476        H479   1.082       .  S
C477       C2532   1.472       .  S
N480        C484   1.360       .  A
N480        C481   1.367       .  A
N480       C1365   1.454       .  S
C481        C482   1.386       .  A
C481       C1392   1.483       .  S
C482        C483   1.370       .  A
C482        H485   1.083       .  S
C483        C484   1.375       .  A
C483        H486   1.082       .  S
C484       C2252   1.469       .  S
N487        C491   1.360       .  A
N487        C488   1.367       .  A
N487       C1445   1.452       .  S
C488        C489   1.386       .  A
C488       C1345   1.485       .  S
C489        C490   1.370       .  A
C489        H492   1.083       .  S
C490        C491   1.375       .  A
C490        H493   1.082       .  S
C491       C2132   1.472       .  S
N494        C498   1.361       .  A
N494        C495   1.365       .  A
N494       C1332   1.446       .  S
C495        C496   1.386       .  A
C495       C1352   1.486       .  S
C496        C497   1.374       .  A
C496        H499   1.082       .  S
C497        C498   1.376       .  A
C497        H500   1.082       .  S
C498       C1312   1.480       .  S
N501        C505   1.365       .  A
N501        C502   1.373   1_545  A
N501       C1272   1.454       .  S
C502        C503   1.389       .  A
C502       C1292   1.497       .  S
C503        C504   1.368   1_565  A
C503        H506   1.083       .  S
C504        C505   1.374       .  A
C504        H507   1.082       .  S
C505       C2472   1.478       .  S
N508        C512   1.364       .  A
N508        C509   1.372       .  A
N508       C1372   1.452       .  S
C509        C510   1.388       .  A
C509       C1285   1.498       .  S
C510        C511   1.369       .  A
C510        H513   1.083       .  S
C511        C512   1.374       .  A
C511        H514   1.082       .  S
C512       C1892   1.480       .  S
N515        C519   1.360       .  A
N515        C516   1.364       .  A
N515       C1325   1.445       .  S
C516        C517   1.387       .  A
C516       C1245   1.488       .  S
C517        C518   1.375       .  A
C517        H520   1.083       .  S
C518        C519   1.376       .  A
C518        H521   1.082       .  S
C519       C2065   1.480       .  S
N522        C526   1.362       .  A
N522        C523   1.370       .  A
N522       C1265   1.453       .  S
C523        C524   1.387       .  A
C523       C1252   1.489       .  S
C524        C525   1.369       .  A
C524        H527   1.083       .  S
C525        C526   1.375       .  A
C525        H528   1.082       .  S
C526       C1512   1.476       .  S
N529        C533   1.359       .  A
N529        C530   1.373       .  A
N529       C1205   1.456       .  S
C530        C531   1.389       .  A
C530       C1225   1.494       .  S
C531        C532   1.367       .  A
C531        H534   1.083       .  S
C532        C533   1.371       .  A
C532        H535   1.082       .  S
C533       C1992   1.470       .  S
N536        C540   1.361       .  A
N536        C537   1.369       .  A
N536       C1185   1.452       .  S
C537        C538   1.389       .  A
C537       C1232   1.494       .  S
C538        C539   1.372       .  A
C538        H541   1.083       .  S
C539        C540   1.373       .  A
C539        H542   1.082       .  S
C540       C1872   1.476       .  S
N543        C547   1.360       .  A
N543        C544   1.369       .  A
N543       C1212   1.454       .  S
C544        C545   1.388       .  A
C544       C1165   1.489       .  S
C545        C546   1.368       .  A
C545        H548   1.083       .  S
C546        C547   1.374       .  A
C546        H549   1.082       .  S
C547       C2552   1.469       .  S
N550        C554   1.361       .  A
N550        C551   1.367       .  A
N550       C1145   1.453       .  S
C551        C552   1.386       .  A
C551       C1172   1.485       .  S
C552        C553   1.370       .  A
C552        H555   1.083       .  S
C553        C554   1.376       .  A
C553        H556   1.082       .  S
C554       C2085   1.473       .  S
N557        C561   1.360       .  A
N557        C558   1.367       .  A
N557       C1152   1.453       .  S
C558        C559   1.387       .  A
C558       C1132   1.481       .  S
C559        C560   1.367       .  A
C559        H562   1.083       .  S
C560        C561   1.375       .  A
C560        H563   1.082       .  S
C561       C2432   1.467       .  S
N564        C568   1.362   1_655  A
N564        C565   1.364       .  A
N564       C1112   1.450       .  S
C565        C566   1.386       .  A
C565       C1125   1.483       .  S
C566        C567   1.370       .  A
C566        H569   1.083       .  S
C567        C568   1.377   1_655  A
C567        H570   1.082   1_655  S
C568       C2505   1.477       .  S
N571        C575   1.363       .  A
N571        C572   1.372       .  A
N571       C1065   1.455       .  S
C572        C573   1.385       .  A
C572       C1085   1.489       .  S
C573        C574   1.367       .  A
C573        H576   1.083       .  S
C574        C575   1.376       .  A
C574        H577   1.082       .  S
C575       C1832   1.475       .  S
N578        C582   1.362       .  A
N578        C579   1.368       .  A
N578       C1105   1.450       .  S
C579        C580   1.386       .  A
C579       C1092   1.489       .  S
C580        C581   1.372       .  A
C580        H583   1.083   1_554  S
C581        C582   1.376       .  A
C581        H584   1.082   1_554  S
C582       C2312   1.479       .  S
N585        C589   1.360       .  A
N585        C586   1.370       .  A
N585       C1192   1.448       .  S
C586        C587   1.386       .  A
C586       C1045   1.492       .  S
C587        C588   1.372       .  A
C587        H590   1.083       .  S
C588        C589   1.375       .  A
C588        H591   1.082       .  S
C589       C2592   1.479       .  S
N592        C596   1.363       .  A
N592        C593   1.373       .  A
N592       C1025   1.450       .  S
C593        C594   1.386       .  A
C593       C1052   1.495       .  S
C594        C595   1.371       .  A
C594        H597   1.083       .  S
C595        C596   1.376       .  A
C595        H598   1.082       .  S
C596       C1965   1.483       .  S
N599        C603   1.359       .  A
N599        C600   1.368       .  A
N599       C1032   1.450       .  S
C600        C601   1.389       .  A
C600       C1005   1.493       .  S
C601        C602   1.370       .  A
C601        H604   1.083       .  S
C602        C603   1.373       .  A
C602        H605   1.082       .  S
C603       C2192   1.472       .  S
N606        C610   1.364       .  A
N606        C607   1.371       .  A
N606       C1072   1.455       .  S
C607        C608   1.389       .  A
C607       C1012   1.493       .  S
C608        C609   1.365       .  A
C608        H611   1.083   1_545  S
C609        C610   1.373       .  A
C609        H612   1.082   1_545  S
C610        C985   1.473       .  S
N613        N614   1.320       .  A
N613        C617   1.343       .  A
N613       Cu621   2.064       .  S
N614        C615   1.343       .  A
N614       Cu620   2.062       .  S
C615        C616   1.384       .  A
C615        H618   1.082       .  S
C616        C617   1.385       .  A
C616        C992   1.478       .  S
C617        H619   1.080       .  S
Cu620       N623   2.063       .  S
Cu621       N631   2.065       .  S
Cu622       N624   2.081       .  S
Cu622       N630   2.081       .  S
N623        N624   1.322       .  A
N623        C627   1.342       .  A
N624        C625   1.347       .  A
C625        C626   1.387       .  A
C625        H628   1.082       .  S
C626        C627   1.382       .  A
C626       C1305   1.480       .  S
C627        H629   1.082       .  S
N630        N631   1.322       .  A
N630        C634   1.345       .  A
N631        C632   1.343       .  A
C632        C633   1.382       .  A
C632        H635   1.082       .  S
C633        C634   1.387       .  A
C633        C965   1.479       .  S
C634        H636   1.082       .  S
N637        C641   1.358       .  A
N637        C638   1.363       .  A
N637        C925   1.447       .  S
C638        C639   1.386       .  A
C638        C945   1.482       .  S
C639        C640   1.372       .  A
C639        H642   1.083       .  S
C640        C641   1.376       .  A
C640        H643   1.082       .  S
C641       C2105   1.472       .  S
N644        C648   1.359       .  A
N644        C645   1.364       .  A
N644        C912   1.446       .  S
C645        C646   1.386       .  A
C645        C952   1.484       .  S
C646        C647   1.372       .  A
C646        H649   1.083       .  S
C647        C648   1.376       .  A
C647        H650   1.082       .  S
C648       C2412   1.476       .  S
N651        C655   1.360       .  A
N651        C652   1.367       .  A
N651        C932   1.447       .  S
C652        C653   1.386       .  A
C652        C885   1.489       .  S
C653        C654   1.372       .  A
C653        H656   1.082       .  S
C654        C655   1.376       .  A
C654        H657   1.082       .  S
C655       C2572   1.478       .  S
N658        C662   1.357       .  A
N658        C659   1.367       .  A
N658        C865   1.450       .  S
C659        C660   1.387       .  A
C659        C892   1.486       .  S
C660        C661   1.371       .  A
C660        H663   1.083       .  S
C661        C662   1.374       .  A
C661        H664   1.082       .  S
C662       C1845   1.467       .  S
N665        C669   1.357       .  A
N665        C666   1.364       .  A
N665        C905   1.445       .  S
C666        C667   1.386       .  A
C666        C845   1.486       .  S
C667        C668   1.374       .  A
C667        H670   1.082       .  S
C668        C669   1.376       .  A
C668        H671   1.082       .  S
C669       C2632   1.473       .  S
N672        C676   1.360       .  A
N672        C673   1.371       .  A
N672        C832   1.450       .  S
C673        C674   1.388       .  A
C673        C852   1.494       .  S
C674        C675   1.372       .  A
C674        H677   1.083       .  S
C675        C676   1.375       .  A
C675        H678   1.082       .  S
C676       C1525   1.477       .  S
N679        C683   1.359       .  A
N679        C680   1.368       .  A
N679        C872   1.447       .  S
C680        C681   1.386       .  A
C680        C805   1.487       .  S
C681        C682   1.371       .  A
C681        H684   1.083       .  S
C682        C683   1.376       .  A
C682        H685   1.082       .  S
C683       C2372   1.476       .  S
N686        C690   1.361   1_556  A
N686        C687   1.369       .  A
N686        C785   1.452       .  S
C687        C688   1.387       .  A
C687        C812   1.490       .  S
C688        C689   1.371   1_556  A
C688        H691   1.083       .  S
C689        C690   1.374       .  A
C689        H692   1.082       .  S
C690       C2492   1.474       .  S
N693        C697   1.360       .  A
N693        C694   1.367       .  A
N693        C752   1.452       .  S
C694        C695   1.386       .  A
C694        C765   1.486       .  S
C695        C696   1.370       .  A
C695        H698   1.083       .  S
C696        C697   1.375       .  A
C696        H699   1.082       .  S
C697       C2265   1.470       .  S
N700        C704   1.360       .  A
N700        C701   1.369       .  A
N700        C792   1.451       .  S
C701        C702   1.387       .  A
C701        C772   1.489       .  S
C702        C703   1.370       .  A
C702        H705   1.083       .  S
C703        C704   1.375       .  A
C703        H706   1.082       .  S
C704       C1945   1.474       .  S
N707        C711   1.358       .  A
N707        C708   1.367       .  A
N707        C825   1.452       .  S
C708        C709   1.389       .  A
C708        C732   1.491       .  S
C709        C710   1.370       .  A
C709        H712   1.083       .  S
C710        C711   1.373       .  A
C710        H713   1.082       .  S
C711       C2005   1.471       .  S
N714        C718   1.358       .  A
N714        C715   1.369       .  A
N714        C745   1.450       .  S
C715        C716   1.389       .  A
C715        C725   1.492       .  S
C716        C717   1.372       .  A
C716        H719   1.083       .  S
C717        C718   1.373       .  A
C717        H720   1.082       .  S
C718        C972   1.474       .  S
C721        C722   1.413       .  A
C721        C726   1.409       .  A
C721        F739   1.358       .  S
C722        C723   1.409       .  A
C722        C727   1.508       .  S
C723        C724   1.409       .  A
C723        F728   1.357       .  S
C724        C725   1.410       .  A
C724        F740   1.358       .  S
C725        C726   1.408       .  A
C726        F729   1.358       .  S
C727        C730   1.412       .  A
C727        C734   1.409       .  A
C730        C731   1.409   1_455  A
C730        F735   1.358       .  S
C731        C732   1.409       .  A
C731        F737   1.358       .  S
C732        C733   1.408       .  A
C733        C734   1.406   1_655  A
C733        F736   1.358       .  S
C734        F738   1.354       .  S
C741        C742   1.412       .  A
C741        C746   1.409       .  A
C741        F759   1.357       .  S
C742        C743   1.411       .  A
C742        C747   1.512       .  S
C743        C744   1.409       .  A
C743        F748   1.355       .  S
C744        C745   1.409       .  A
C744        F760   1.356       .  S
C745        C746   1.408       .  A
C746        F749   1.357       .  S
C747        C750   1.414       .  A
C747        C754   1.409       .  A
C750        C751   1.410       .  A
C750        F755   1.357       .  S
C751        C752   1.405       .  A
C751        F757   1.356       .  S
C752        C753   1.411       .  A
C753        C754   1.409       .  A
C753        F756   1.357       .  S
C754        F758   1.356       .  S
C761        C762   1.412       .  A
C761        C766   1.407   1_545  A
C761        F779   1.358   1_545  S
C762        C763   1.411       .  A
C762        C767   1.509       .  S
C763        C764   1.409       .  A
C763        F768   1.357       .  S
C764        C765   1.408   1_545  A
C764        F780   1.358       .  S
C765        C766   1.407       .  A
C766        F769   1.358       .  S
C767        C770   1.411       .  A
C767        C774   1.411       .  A
C770        C771   1.411       .  A
C770        F775   1.357       .  S
C771        C772   1.410       .  A
C771        F777   1.358       .  S
C772        C773   1.408       .  A
C773        C774   1.406       .  A
C773        F776   1.358       .  S
C774        F778   1.358       .  S
C781        C782   1.414       .  A
C781        C786   1.408   1_554  A
C781        F799   1.355       .  S
C782        C783   1.416       .  A
C782        C787   1.520       .  S
C783        C784   1.410       .  A
C783        F788   1.357       .  S
C784        C785   1.406   1_554  A
C784        F800   1.356       .  S
C785        C786   1.409       .  A
C786        F789   1.357       .  S
C787        C790   1.412       .  A
C787        C794   1.416       .  A
C790        C791   1.407       .  A
C790        F795   1.354       .  S
C791        C792   1.408       .  A
C791        F797   1.357       .  S
C792        C793   1.407       .  A
C793        C794   1.412       .  A
C793        F796   1.357       .  S
C794        F798   1.357       .  S
C801        C802   1.411       .  A
C801        C806   1.408       .  A
C801        F819   1.358       .  S
C802        C803   1.407       .  A
C802        C807   1.504       .  S
C803        C804   1.409       .  A
C803        F808   1.357       .  S
C804        C805   1.410       .  A
C804        F820   1.357       .  S
C805        C806   1.407       .  A
C806        F809   1.358       .  S
C807        C810   1.407       .  A
C807        C814   1.411       .  A
C810        C811   1.408       .  A
C810        F815   1.357       .  S
C811        C812   1.411       .  A
C811        F817   1.356       .  S
C812        C813   1.407       .  A
C813        C814   1.409       .  A
C813        F816   1.357       .  S
C814        F818   1.358       .  S
C821        C822   1.413       .  A
C821        C826   1.407       .  A
C821        F839   1.356       .  S
C822        C823   1.411       .  A
C822        C827   1.512       .  S
C823        C824   1.409       .  A
C823        F828   1.357       .  S
C824        C825   1.409       .  A
C824        F840   1.357       .  S
C825        C826   1.407       .  A
C826        F829   1.357       .  S
C827        C830   1.413       .  A
C827        C834   1.410       .  A
C830        C831   1.410       .  A
C830        F835   1.358       .  S
C831        C832   1.407       .  A
C831        F837   1.356       .  S
C832        C833   1.411       .  A
C833        C834   1.407       .  A
C833        F836   1.357       .  S
C834        F838   1.357       .  S
C841        C842   1.408       .  A
C841        C846   1.406       .  A
C841        F859   1.357       .  S
C842        C843   1.412       .  A
C842        C847   1.503       .  S
C843        C844   1.408       .  A
C843        F848   1.357       .  S
C844        C845   1.405       .  A
C844        F860   1.358       .  S
C845        C846   1.409       .  A
C846        F849   1.358       .  S
C847        C850   1.410       .  A
C847        C854   1.407       .  A
C850        C851   1.409       .  A
C850        F855   1.358       .  S
C851        C852   1.407       .  A
C851        F857   1.356       .  S
C852        C853   1.413       .  A
C853        C854   1.408       .  A
C853        F856   1.358       .  S
C854        F858   1.358       .  S
C861        C862   1.408       .  A
C861        C866   1.408       .  A
C861        F879   1.355       .  S
C862        C863   1.410       .  A
C862        C867   1.507       .  S
C863        C864   1.410       .  A
C863        F868   1.357       .  S
C864        C865   1.410       .  A
C864        F880   1.357       .  S
C865        C866   1.407       .  A
C866        F869   1.354       .  S
C867        C870   1.408       .  A
C867        C874   1.413       .  A
C870        C871   1.406       .  A
C870        F875   1.357       .  S
C871        C872   1.409       .  A
C871        F877   1.357       .  S
C872        C873   1.406       .  A
C873        C874   1.409       .  A
C873        F876   1.357       .  S
C874        F878   1.357       .  S
C881        C882   1.411       .  A
C881        C886   1.405       .  A
C881        F899   1.358       .  S
C882        C883   1.410       .  A
C882        C887   1.506       .  S
C883        C884   1.411       .  A
C883        F888   1.357       .  S
C884        C885   1.410       .  A
C884        F900   1.357       .  S
C885        C886   1.407       .  A
C886        F889   1.358       .  S
C887        C890   1.409       .  A
C887        C894   1.411       .  A
C890        C891   1.408       .  A
C890        F895   1.358       .  S
C891        C892   1.408       .  A
C891        F897   1.356       .  S
C892        C893   1.407       .  A
C893        C894   1.408       .  A
C893        F896   1.358       .  S
C894        F898   1.357       .  S
C901        C902   1.408       .  A
C901        C906   1.405       .  A
C901        F919   1.356       .  S
C902        C903   1.405       .  A
C902        C907   1.495       .  S
C903        C904   1.407       .  A
C903        F908   1.358       .  S
C904        C905   1.410       .  A
C904        F920   1.357       .  S
C905        C906   1.405       .  A
C906        F909   1.357       .  S
C907        C910   1.405       .  A
C907        C914   1.409       .  A
C910        C911   1.405       .  A
C910        F915   1.357       .  S
C911        C912   1.410       .  A
C911        F917   1.357       .  S
C912        C913   1.405       .  A
C913        C914   1.405       .  A
C913        F916   1.357       .  S
C914        F918   1.356       .  S
C921        C922   1.412       .  A
C921        C926   1.408       .  A
C921        F939   1.357       .  S
C922        C923   1.407       .  A
C922        C927   1.505       .  S
C923        C924   1.403       .  A
C923        F928   1.354       .  S
C924        C925   1.407       .  A
C924        F940   1.356       .  S
C925        C926   1.405       .  A
C926        F929   1.356       .  S
C927        C930   1.413       .  A
C927        C934   1.409       .  A
C930        C931   1.409       .  A
C930        F935   1.357       .  S
C931        C932   1.405       .  A
C931        F937   1.356       .  S
C932        C933   1.409       .  A
C933        C934   1.404       .  A
C933        F936   1.357       .  S
C934        F938   1.357       .  S
C941        C942   1.408       .  A
C941        C946   1.405       .  A
C941        F959   1.357       .  S
C942        C943   1.411       .  A
C942        C947   1.500       .  S
C943        C944   1.405       .  A
C943        F948   1.358       .  S
C944        C945   1.405       .  A
C944        F960   1.357       .  S
C945        C946   1.408       .  A
C946        F949   1.358       .  S
C947        C950   1.412       .  A
C947        C954   1.408       .  A
C950        C951   1.405       .  A
C950        F955   1.358       .  S
C951        C952   1.405       .  A
C951        F957   1.358       .  S
C952        C953   1.409       .  A
C953        C954   1.406       .  A
C953        F956   1.358       .  S
C954        F958   1.358       .  S
C961        C962   1.404       .  A
C961        C966   1.397   1_565  A
C961        F979   1.358       .  S
C962        C963   1.405       .  A
C962        C967   1.479       .  S
C963        C964   1.399   1_565  A
C963        F968   1.358       .  S
C964        C965   1.408       .  A
C964        F980   1.358       .  S
C965        C966   1.407       .  A
C966        F969   1.357       .  S
C967        C970   1.407       .  A
C967        C974   1.405       .  A
C970        C971   1.400       .  A
C970        F975   1.357       .  S
C971        C972   1.403       .  A
C971        F977   1.358       .  S
C972        C973   1.402       .  A
C973        C974   1.396       .  A
C973        F976   1.358       .  S
C974        F978   1.358       .  S
C981        C982   1.404       .  A
C981        C986   1.395       .  A
C981        F999   1.357   1_556  S
C982        C983   1.406       .  A
C982        C987   1.475   1_556  S
C983        C984   1.397       .  A
C983        F988   1.358       .  S
C984        C985   1.403       .  A
C984       F1000   1.357       .  S
C985        C986   1.403       .  A
C986        F989   1.358       .  S
C987        C990   1.404       .  A
C987        C994   1.403       .  A
C990        C991   1.397       .  A
C990        F995   1.358   1_554  S
C991        C992   1.408       .  A
C991        F997   1.358       .  S
C992        C993   1.409       .  A
C993        C994   1.396       .  A
C993        F996   1.357       .  S
C994        F998   1.358       .  S
C1001      C1002   1.412   1_565  A
C1001      C1006   1.405       .  A
C1001      F1019   1.357   1_565  S
C1002      C1003   1.415       .  A
C1002      C1007   1.514       .  S
C1003      C1004   1.411   1_545  A
C1003      F1008   1.357       .  S
C1004      C1005   1.407       .  A
C1004      F1020   1.357       .  S
C1005      C1006   1.409       .  A
C1006      F1009   1.358       .  S
C1007      C1010   1.415       .  A
C1007      C1014   1.410       .  A
C1010      C1011   1.414       .  A
C1010      F1015   1.354       .  S
C1011      C1012   1.407       .  A
C1011      F1017   1.357       .  S
C1012      C1013   1.411       .  A
C1013      C1014   1.402       .  A
C1013      F1016   1.359       .  S
C1014      F1018   1.358       .  S
C1021      C1022   1.405       .  A
C1021      C1026   1.406       .  A
C1021      F1039   1.353       .  S
C1022      C1023   1.411       .  A
C1022      C1027   1.505       .  S
C1023      C1024   1.410       .  A
C1023      F1028   1.357       .  S
C1024      C1025   1.407       .  A
C1024      F1040   1.355       .  S
C1025      C1026   1.411       .  A
C1026      F1029   1.357       .  S
C1027      C1030   1.408       .  A
C1027      C1034   1.410       .  A
C1030      C1031   1.408       .  A
C1030      F1035   1.357       .  S
C1031      C1032   1.411       .  A
C1031      F1037   1.355       .  S
C1032      C1033   1.407       .  A
C1033      C1034   1.407       .  A
C1033      F1036   1.357       .  S
C1034      F1038   1.356       .  S
C1041      C1042   1.408       .  A
C1041      C1046   1.413       .  A
C1041      F1059   1.357       .  S
C1042      C1043   1.408       .  A
C1042      C1047   1.503       .  S
C1043      C1044   1.408       .  A
C1043      F1048   1.358       .  S
C1044      C1045   1.409       .  A
C1044      F1060   1.358       .  S
C1045      C1046   1.411       .  A
C1046      F1049   1.357       .  S
C1047      C1050   1.409       .  A
C1047      C1054   1.406       .  A
C1050      C1051   1.410       .  A
C1050      F1055   1.357       .  S
C1051      C1052   1.408       .  A
C1051      F1057   1.356       .  S
C1052      C1053   1.414       .  A
C1053      C1054   1.411       .  A
C1053      F1056   1.358       .  S
C1054      F1058   1.357       .  S
C1061      C1062   1.417       .  A
C1061      C1066   1.415       .  A
C1061      F1079   1.357       .  S
C1062      C1063   1.412       .  A
C1062      C1067   1.520       .  S
C1063      C1064   1.406       .  A
C1063      F1068   1.356       .  S
C1064      C1065   1.409       .  A
C1064      F1080   1.357       .  S
C1065      C1066   1.408       .  A
C1066      F1069   1.356       .  S
C1067      C1070   1.418       .  A
C1067      C1074   1.411       .  A
C1070      C1071   1.416       .  A
C1070      F1075   1.357       .  S
C1071      C1072   1.407       .  A
C1071      F1077   1.357       .  S
C1072      C1073   1.409       .  A
C1073      C1074   1.404       .  A
C1073      F1076   1.356       .  S
C1074      F1078   1.355       .  S
C1081      C1082   1.411       .  A
C1081      C1086   1.411       .  A
C1081      F1099   1.358       .  S
C1082      C1083   1.413   1_554  A
C1082      C1087   1.512       .  S
C1083      C1084   1.408       .  A
C1083      F1088   1.357       .  S
C1084      C1085   1.407       .  A
C1084      F1100   1.358       .  S
C1085      C1086   1.411   1_556  A
C1086      F1089   1.358       .  S
C1087      C1090   1.413       .  A
C1087      C1094   1.412       .  A
C1090      C1091   1.407       .  A
C1090      F1095   1.357       .  S
C1091      C1092   1.407       .  A
C1091      F1097   1.358       .  S
C1092      C1093   1.409       .  A
C1093      C1094   1.411       .  A
C1093      F1096   1.358       .  S
C1094      F1098   1.357       .  S
C1101      C1102   1.413       .  A
C1101      C1106   1.412       .  A
C1101      F1119   1.357       .  S
C1102      C1103   1.408       .  A
C1102      C1107   1.506       .  S
C1103      C1104   1.402       .  A
C1103      F1108   1.356   1_455  S
C1104      C1105   1.409       .  A
C1104      F1120   1.357       .  S
C1105      C1106   1.406       .  A
C1106      F1109   1.356       .  S
C1107      C1110   1.413       .  A
C1107      C1114   1.407   1_455  A
C1110      C1111   1.411       .  A
C1110      F1115   1.357       .  S
C1111      C1112   1.407   1_455  A
C1111      F1117   1.357       .  S
C1112      C1113   1.408       .  A
C1113      C1114   1.402       .  A
C1113      F1116   1.357       .  S
C1114      F1118   1.354       .  S
C1121      C1122   1.410       .  A
C1121      C1126   1.408       .  A
C1121      F1139   1.355       .  S
C1122      C1123   1.410       .  A
C1122      C1127   1.503       .  S
C1123      C1124   1.403       .  A
C1123      F1128   1.358       .  S
C1124      C1125   1.407       .  A
C1124      F1140   1.358       .  S
C1125      C1126   1.407       .  A
C1126      F1129   1.358       .  S
C1127      C1130   1.410       .  A
C1127      C1134   1.409       .  A
C1130      C1131   1.405       .  A
C1130      F1135   1.358       .  S
C1131      C1132   1.408       .  A
C1131      F1137   1.358       .  S
C1132      C1133   1.408       .  A
C1133      C1134   1.408       .  A
C1133      F1136   1.358       .  S
C1134      F1138   1.356       .  S
C1141      C1142   1.415       .  A
C1141      C1146   1.412       .  A
C1141      F1159   1.357       .  S
C1142      C1143   1.412       .  A
C1142      C1147   1.515       .  S
C1143      C1144   1.407       .  A
C1143      F1148   1.357       .  S
C1144      C1145   1.409       .  A
C1144      F1160   1.357       .  S
C1145      C1146   1.407       .  A
C1146      F1149   1.356       .  S
C1147      C1150   1.416       .  A
C1147      C1154   1.409       .  A
C1150      C1151   1.414       .  A
C1150      F1155   1.357       .  S
C1151      C1152   1.407       .  A
C1151      F1157   1.357       .  S
C1152      C1153   1.408       .  A
C1153      C1154   1.405       .  A
C1153      F1156   1.355       .  S
C1154      F1158   1.355       .  S
C1161      C1162   1.411       .  A
C1161      C1166   1.409       .  A
C1161      F1179   1.358       .  S
C1162      C1163   1.406       .  A
C1162      C1167   1.502       .  S
C1163      C1164   1.406       .  A
C1163      F1168   1.358       .  S
C1164      C1165   1.411       .  A
C1164      F1180   1.358       .  S
C1165      C1166   1.408       .  A
C1166      F1169   1.357       .  S
C1167      C1170   1.408       .  A
C1167      C1174   1.410       .  A
C1170      C1171   1.410       .  A
C1170      F1175   1.357       .  S
C1171      C1172   1.411       .  A
C1171      F1177   1.358       .  S
C1172      C1173   1.406       .  A
C1173      C1174   1.405       .  A
C1173      F1176   1.358       .  S
C1174      F1178   1.358       .  S
C1181      C1182   1.411       .  A
C1181      C1186   1.408       .  A
C1181      F1199   1.354       .  S
C1182      C1183   1.413       .  A
C1182      C1187   1.514       .  S
C1183      C1184   1.410       .  A
C1183      F1188   1.357       .  S
C1184      C1185   1.408       .  A
C1184      F1200   1.357       .  S
C1185      C1186   1.409       .  A
C1186      F1189   1.357       .  S
C1187      C1190   1.411       .  A
C1187      C1194   1.415       .  A
C1190      C1191   1.406       .  A
C1190      F1195   1.354       .  S
C1191      C1192   1.407       .  A
C1191      F1197   1.356       .  S
C1192      C1193   1.405       .  A
C1193      C1194   1.410       .  A
C1193      F1196   1.356       .  S
C1194      F1198   1.357       .  S
C1201      C1202   1.409       .  A
C1201      C1206   1.411       .  A
C1201      F1219   1.357       .  S
C1202      C1203   1.412       .  A
C1202      C1207   1.513       .  S
C1203      C1204   1.411       .  A
C1203      F1208   1.356       .  S
C1204      C1205   1.409       .  A
C1204      F1220   1.357       .  S
C1205      C1206   1.412       .  A
C1206      F1209   1.357       .  S
C1207      C1210   1.410       .  A
C1207      C1214   1.413       .  A
C1210      C1211   1.409       .  A
C1210      F1215   1.358       .  S
C1211      C1212   1.411       .  A
C1211      F1217   1.357       .  S
C1212      C1213   1.408       .  A
C1213      C1214   1.412       .  A
C1213      F1216   1.356       .  S
C1214      F1218   1.357       .  S
C1221      C1222   1.412       .  A
C1221      C1226   1.409       .  A
C1221      F1239   1.358       .  S
C1222      C1223   1.409       .  A
C1222      C1227   1.509       .  S
C1223      C1224   1.410       .  A
C1223      F1228   1.357       .  S
C1224      C1225   1.411       .  A
C1224      F1240   1.357       .  S
C1225      C1226   1.409       .  A
C1226      F1229   1.358       .  S
C1227      C1230   1.413       .  A
C1227      C1234   1.408       .  A
C1230      C1231   1.411       .  A
C1230      F1235   1.357       .  S
C1231      C1232   1.408       .  A
C1231      F1237   1.358       .  S
C1232      C1233   1.411       .  A
C1233      C1234   1.409       .  A
C1233      F1236   1.358       .  S
C1234      F1238   1.358       .  S
C1241      C1242   1.410       .  A
C1241      C1246   1.407       .  A
C1241      F1259   1.357       .  S
C1242      C1243   1.413   1_455  A
C1242      C1247   1.509       .  S
C1243      C1244   1.409       .  A
C1243      F1248   1.357       .  S
C1244      C1245   1.406       .  A
C1244      F1260   1.357       .  S
C1245      C1246   1.408   1_655  A
C1246      F1249   1.356       .  S
C1247      C1250   1.411       .  A
C1247      C1254   1.412       .  A
C1250      C1251   1.404       .  A
C1250      F1255   1.358       .  S
C1251      C1252   1.408       .  A
C1251      F1257   1.358       .  S
C1252      C1253   1.410       .  A
C1253      C1254   1.413       .  A
C1253      F1256   1.357       .  S
C1254      F1258   1.357       .  S
C1261      C1262   1.412       .  A
C1261      C1266   1.406       .  A
C1261      F1279   1.355   1_545  S
C1262      C1263   1.416       .  A
C1262      C1267   1.517       .  S
C1263      C1264   1.413       .  A
C1263      F1268   1.357       .  S
C1264      C1265   1.407       .  A
C1264      F1280   1.357       .  S
C1265      C1266   1.409       .  A
C1266      F1269   1.358       .  S
C1267      C1270   1.411       .  A
C1267      C1274   1.417       .  A
C1270      C1271   1.406   1_545  A
C1270      F1275   1.356       .  S
C1271      C1272   1.411   1_565  A
C1271      F1277   1.357       .  S
C1272      C1273   1.406       .  A
C1273      C1274   1.414       .  A
C1273      F1276   1.356       .  S
C1274      F1278   1.357       .  S
C1281      C1282   1.419       .  A
C1281      C1286   1.416       .  A
C1281      F1299   1.357       .  S
C1282      C1283   1.413       .  A
C1282      C1287   1.522       .  S
C1283      C1284   1.406       .  A
C1283      F1288   1.357       .  S
C1284      C1285   1.410       .  A
C1284      F1300   1.358       .  S
C1285      C1286   1.408       .  A
C1286      F1289   1.357       .  S
C1287      C1290   1.413       .  A
C1287      C1294   1.419       .  A
C1290      C1291   1.405       .  A
C1290      F1295   1.357       .  S
C1291      C1292   1.410       .  A
C1291      F1297   1.359   1_565  S
C1292      C1293   1.407       .  A
C1293      C1294   1.416       .  A
C1293      F1296   1.357       .  S
C1294      F1298   1.356       .  S
C1301      C1302   1.406       .  A
C1301      C1306   1.400   1_655  A
C1301      F1319   1.358       .  S
C1302      C1303   1.404       .  A
C1302      C1307   1.480       .  S
C1303      C1304   1.398   1_655  A
C1303      F1308   1.358       .  S
C1304      C1305   1.409       .  A
C1304      F1320   1.358       .  S
C1305      C1306   1.407       .  A
C1306      F1309   1.358       .  S
C1307      C1310   1.406       .  A
C1307      C1314   1.405       .  A
C1310      C1311   1.399       .  A
C1310      F1315   1.358       .  S
C1311      C1312   1.404       .  A
C1311      F1317   1.358       .  S
C1312      C1313   1.405       .  A
C1313      C1314   1.399       .  A
C1313      F1316   1.357       .  S
C1314      F1318   1.358       .  S
C1321      C1322   1.412       .  A
C1321      C1326   1.409       .  A
C1321      F1339   1.357       .  S
C1322      C1323   1.408       .  A
C1322      C1327   1.504       .  S
C1323      C1324   1.399       .  A
C1323      F1328   1.353       .  S
C1324      C1325   1.404       .  A
C1324      F1340   1.355       .  S
C1325      C1326   1.407       .  A
C1326      F1329   1.357       .  S
C1327      C1330   1.414       .  A
C1327      C1334   1.407       .  A
C1330      C1331   1.411       .  A
C1330      F1335   1.357       .  S
C1331      C1332   1.405       .  A
C1331      F1337   1.356       .  S
C1332      C1333   1.407       .  A
C1333      C1334   1.400       .  A
C1333      F1336   1.357       .  S
C1334      F1338   1.356       .  S
C1341      C1342   1.409       .  A
C1341      C1346   1.409       .  A
C1341      F1359   1.357       .  S
C1342      C1343   1.409       .  A
C1342      C1347   1.502       .  S
C1343      C1344   1.406   1_554  A
C1343      F1348   1.358   1_554  S
C1344      C1345   1.407       .  A
C1344      F1360   1.358       .  S
C1345      C1346   1.409   1_556  A
C1346      F1349   1.358       .  S
C1347      C1350   1.410       .  A
C1347      C1354   1.410       .  A
C1350      C1351   1.405       .  A
C1350      F1355   1.358       .  S
C1351      C1352   1.407       .  A
C1351      F1357   1.358       .  S
C1352      C1353   1.409       .  A
C1353      C1354   1.410       .  A
C1353      F1356   1.358       .  S
C1354      F1358   1.357       .  S
C1361      C1362   1.413       .  A
C1361      C1366   1.413       .  A
C1361      F1379   1.356       .  S
C1362      C1363   1.408       .  A
C1362      C1367   1.510       .  S
C1363      C1364   1.405       .  A
C1363      F1368   1.356       .  S
C1364      C1365   1.411       .  A
C1364      F1380   1.358       .  S
C1365      C1366   1.407       .  A
C1366      F1369   1.355       .  S
C1367      C1370   1.413       .  A
C1367      C1374   1.406       .  A
C1370      C1371   1.414       .  A
C1370      F1375   1.357       .  S
C1371      C1372   1.409       .  A
C1371      F1377   1.356       .  S
C1372      C1373   1.410       .  A
C1373      C1374   1.405       .  A
C1373      F1376   1.357       .  S
C1374      F1378   1.355       .  S
C1381      C1382   1.409       .  A
C1381      C1386   1.407       .  A
C1381      F1399   1.358       .  S
C1382      C1383   1.404       .  A
C1382      C1387   1.495       .  S
C1383      C1384   1.406       .  A
C1383      F1388   1.358       .  S
C1384      C1385   1.413       .  A
C1384      F1400   1.358       .  S
C1385      C1386   1.406       .  A
C1386      F1389   1.356       .  S
C1387      C1390   1.406       .  A
C1387      C1394   1.407       .  A
C1390      C1391   1.408       .  A
C1390      F1395   1.357       .  S
C1391      C1392   1.410       .  A
C1391      F1397   1.358       .  S
C1392      C1393   1.407       .  A
C1393      C1394   1.404       .  A
C1393      F1396   1.357       .  S
C1394      F1398   1.358       .  S
C1401      C1402   1.413       .  A
C1401      C1406   1.409       .  A
C1401      F1419   1.355       .  S
C1402      C1403   1.409       .  A
C1402      C1407   1.511       .  S
C1403      C1404   1.407       .  A
C1403      F1408   1.356       .  S
C1404      C1405   1.411       .  A
C1404      F1420   1.357       .  S
C1405      C1406   1.405       .  A
C1406      F1409   1.357       .  S
C1407      C1410   1.412       .  A
C1407      C1414   1.411       .  A
C1410      C1411   1.406       .  A
C1410      F1415   1.357       .  S
C1411      C1412   1.406       .  A
C1411      F1417   1.356       .  S
C1412      C1413   1.409       .  A
C1413      C1414   1.410       .  A
C1413      F1416   1.357       .  S
C1414      F1418   1.355       .  S
C1421      C1422   1.420       .  A
C1421      C1426   1.416       .  A
C1421      F1439   1.357       .  S
C1422      C1423   1.413       .  A
C1422      C1427   1.522       .  S
C1423      C1424   1.403       .  A
C1423      F1428   1.357       .  S
C1424      C1425   1.409       .  A
C1424      F1440   1.359       .  S
C1425      C1426   1.407       .  A
C1426      F1429   1.357       .  S
C1427      C1430   1.413       .  A
C1427      C1434   1.420       .  A
C1430      C1431   1.404       .  A
C1430      F1435   1.357       .  S
C1431      C1432   1.409       .  A
C1431      F1437   1.359       .  S
C1432      C1433   1.406       .  A
C1433      C1434   1.415       .  A
C1433      F1436   1.357       .  S
C1434      F1438   1.357       .  S
C1441      C1442   1.415       .  A
C1441      C1446   1.412       .  A
C1441      F1459   1.357       .  S
C1442      C1443   1.410       .  A
C1442      C1447   1.513       .  S
C1443      C1444   1.405       .  A
C1443      F1448   1.356       .  S
C1444      C1445   1.409       .  A
C1444      F1460   1.357       .  S
C1445      C1446   1.407       .  A
C1446      F1449   1.357       .  S
C1447      C1450   1.415       .  A
C1447      C1454   1.410       .  A
C1450      C1451   1.412       .  A
C1450      F1455   1.357       .  S
C1451      C1452   1.407       .  A
C1451      F1457   1.357       .  S
C1452      C1453   1.408       .  A
C1453      C1454   1.404       .  A
C1453      F1456   1.357       .  S
C1454      F1458   1.354       .  S
C1461      C1462   1.417       .  A
C1461      C1466   1.414       .  A
C1461      F1479   1.357       .  S
C1462      C1463   1.411       .  A
C1462      C1467   1.516       .  S
C1463      C1464   1.402       .  A
C1463      F1468   1.354       .  S
C1464      C1465   1.407       .  A
C1464      F1480   1.357       .  S
C1465      C1466   1.407       .  A
C1466      F1469   1.356       .  S
C1467      C1470   1.416       .  A
C1467      C1474   1.412       .  A
C1470      C1471   1.413       .  A
C1470      F1475   1.357       .  S
C1471      C1472   1.406       .  A
C1471      F1477   1.357       .  S
C1472      C1473   1.409       .  A
C1473      C1474   1.404       .  A
C1473      F1476   1.358       .  S
C1474      F1478   1.357       .  S
C1481      C1482   1.412       .  A
C1481      C1486   1.409       .  A
C1481      F1499   1.357       .  S
C1482      C1483   1.414       .  A
C1482      C1487   1.513       .  S
C1483      C1484   1.406       .  A
C1483      F1488   1.357       .  S
C1484      C1485   1.406       .  A
C1484      F1500   1.357       .  S
C1485      C1486   1.409       .  A
C1486      F1489   1.358       .  S
C1487      C1490   1.414       .  A
C1487      C1494   1.414       .  A
C1490      C1491   1.404       .  A
C1490      F1495   1.357       .  S
C1491      C1492   1.405       .  A
C1491      F1497   1.358       .  S
C1492      C1493   1.408       .  A
C1493      C1494   1.411       .  A
C1493      F1496   1.358       .  S
C1494      F1498   1.356       .  S
C1501      C1502   1.404       .  A
C1501      C1506   1.399       .  A
C1501      F1519   1.358       .  S
C1502      C1503   1.403       .  A
C1502      C1507   1.479       .  S
C1503      C1504   1.397       .  A
C1503      F1508   1.358       .  S
C1504      C1505   1.411       .  A
C1504      F1520   1.356       .  S
C1505      C1506   1.409       .  A
C1506      F1509   1.356       .  S
C1507      C1510   1.406       .  A
C1507      C1514   1.407   1_565  A
C1510      C1511   1.397   1_565  A
C1510      F1515   1.357       .  S
C1511      C1512   1.404       .  A
C1511      F1517   1.358       .  S
C1512      C1513   1.403       .  A
C1513      C1514   1.397       .  A
C1513      F1516   1.357       .  S
C1514      F1518   1.358       .  S
C1521      C1522   1.407       .  A
C1521      C1526   1.398       .  A
C1521      F1539   1.358       .  S
C1522      C1523   1.405       .  A
C1522      C1527   1.481       .  S
C1523      C1524   1.399       .  A
C1523      F1528   1.357       .  S
C1524      C1525   1.403       .  A
C1524      F1540   1.356       .  S
C1525      C1526   1.402       .  A
C1526      F1529   1.357       .  S
C1527      C1530   1.403   1_655  A
C1527      C1534   1.406       .  A
C1530      C1531   1.397       .  A
C1530      F1535   1.358       .  S
C1531      C1532   1.411       .  A
C1531      F1537   1.357       .  S
C1532      C1533   1.409       .  A
C1533      C1534   1.401   1_455  A
C1533      F1536   1.356       .  S
C1534      F1538   1.358       .  S
C1541      C1542   1.405       .  A
C1541      C1546   1.399       .  A
C1541      F1559   1.358       .  S
C1542      C1543   1.403       .  A
C1542      C1547   1.478       .  S
C1543      C1544   1.397       .  A
C1543      F1548   1.358       .  S
C1544      C1545   1.408       .  A
C1544      F1560   1.357       .  S
C1545      C1546   1.409       .  A
C1546      F1549   1.357       .  S
C1547      C1550   1.403       .  A
C1547      C1554   1.408       .  A
C1550      C1551   1.396       .  A
C1550      F1555   1.356       .  S
C1551      C1552   1.399       .  A
C1551      F1557   1.353       .  S
C1552      C1553   1.402       .  A
C1553      C1554   1.400       .  A
C1553      F1556   1.357       .  S
C1554      F1558   1.358       .  S
C1561      C1562   1.409       .  A
C1561      C1566   1.409       .  A
C1561      F1579   1.357       .  S
C1562      C1563   1.403       .  A
C1562      C1567   1.496       .  S
C1563      C1564   1.407       .  A
C1563      F1568   1.358       .  S
C1564      C1565   1.414       .  A
C1564      F1580   1.358       .  S
C1565      C1566   1.406       .  A
C1566      F1569   1.356       .  S
C1567      C1570   1.404       .  A
C1567      C1574   1.408       .  A
C1570      C1571   1.408       .  A
C1570      F1575   1.357       .  S
C1571      C1572   1.412       .  A
C1571      F1577   1.357       .  S
C1572      C1573   1.408       .  A
C1573      C1574   1.407       .  A
C1573      F1576   1.357       .  S
C1574      F1578   1.358       .  S
C1581      C1582   1.412       .  A
C1581      C1586   1.412   1_545  A
C1581      F1599   1.357       .  S
C1582      C1583   1.407   1_545  A
C1582      C1587   1.508       .  S
C1583      C1584   1.404       .  A
C1583      F1588   1.353       .  S
C1584      C1585   1.409       .  A
C1584      F1600   1.358       .  S
C1585      C1586   1.408       .  A
C1586      F1589   1.355   1_565  S
C1587      C1590   1.412       .  A
C1587      C1594   1.408       .  A
C1590      C1591   1.410       .  A
C1590      F1595   1.357       .  S
C1591      C1592   1.408       .  A
C1591      F1597   1.357       .  S
C1592      C1593   1.411       .  A
C1593      C1594   1.407       .  A
C1593      F1596   1.354       .  S
C1594      F1598   1.357   1_545  S
C1601      C1602   1.412       .  A
C1601      C1606   1.412       .  A
C1601      F1619   1.357       .  S
C1602      C1603   1.411       .  A
C1602      C1607   1.511       .  S
C1603      C1604   1.406       .  A
C1603      F1608   1.358       .  S
C1604      C1605   1.409       .  A
C1604      F1620   1.358       .  S
C1605      C1606   1.409       .  A
C1606      F1609   1.357       .  S
C1607      C1610   1.411       .  A
C1607      C1614   1.411       .  A
C1610      C1611   1.408       .  A
C1610      F1615   1.357       .  S
C1611      C1612   1.409       .  A
C1611      F1617   1.358       .  S
C1612      C1613   1.409       .  A
C1613      C1614   1.411       .  A
C1613      F1616   1.355       .  S
C1614      F1618   1.357       .  S
C1621      C1622   1.413       .  A
C1621      C1626   1.405       .  A
C1621      F1639   1.356       .  S
C1622      C1623   1.412       .  A
C1622      C1627   1.511       .  S
C1623      C1624   1.408       .  A
C1623      F1628   1.356       .  S
C1624      C1625   1.409       .  A
C1624      F1640   1.357       .  S
C1625      C1626   1.404       .  A
C1626      F1629   1.357       .  S
C1627      C1630   1.412       .  A
C1627      C1634   1.410       .  A
C1630      C1631   1.405       .  A
C1630      F1635   1.357       .  S
C1631      C1632   1.405       .  A
C1631      F1637   1.356       .  S
C1632      C1633   1.410       .  A
C1633      C1634   1.410       .  A
C1633      F1636   1.357       .  S
C1634      F1638   1.354       .  S
C1641      C1642   1.411       .  A
C1641      C1646   1.409       .  A
C1641      F1659   1.358       .  S
C1642      C1643   1.405       .  A
C1642      C1647   1.502       .  S
C1643      C1644   1.405       .  A
C1643      F1648   1.355       .  S
C1644      C1645   1.410       .  A
C1644      F1660   1.358       .  S
C1645      C1646   1.408       .  A
C1646      F1649   1.358       .  S
C1647      C1650   1.412       .  A
C1647      C1654   1.405       .  A
C1650      C1651   1.409       .  A
C1650      F1655   1.358       .  S
C1651      C1652   1.407       .  A
C1651      F1657   1.357       .  S
C1652      C1653   1.413       .  A
C1653      C1654   1.406       .  A
C1653      F1656   1.358       .  S
C1654      F1658   1.357       .  S
C1661      C1662   1.410       .  A
C1661      C1666   1.406       .  A
C1661      F1679   1.357   1_455  S
C1662      C1663   1.413       .  A
C1662      C1667   1.509   1_455  S
C1663      C1664   1.409       .  A
C1663      F1668   1.358       .  S
C1664      C1665   1.407       .  A
C1664      F1680   1.357       .  S
C1665      C1666   1.409       .  A
C1666      F1669   1.357       .  S
C1667      C1670   1.410       .  A
C1667      C1674   1.414   1_655  A
C1670      C1671   1.405       .  A
C1670      F1675   1.357       .  S
C1671      C1672   1.408       .  A
C1671      F1677   1.357       .  S
C1672      C1673   1.406       .  A
C1673      C1674   1.409   1_655  A
C1673      F1676   1.356       .  S
C1674      F1678   1.357       .  S
C1681      C1682   1.407       .  A
C1681      C1686   1.410       .  A
C1681      F1699   1.357       .  S
C1682      C1683   1.407       .  A
C1682      C1687   1.497       .  S
C1683      C1684   1.404       .  A
C1683      F1688   1.358       .  S
C1684      C1685   1.407       .  A
C1684      F1700   1.358       .  S
C1685      C1686   1.410       .  A
C1686      F1689   1.358       .  S
C1687      C1690   1.409       .  A
C1687      C1694   1.405       .  A
C1690      C1691   1.406       .  A
C1690      F1695   1.358       .  S
C1691      C1692   1.407       .  A
C1691      F1697   1.357       .  S
C1692      C1693   1.411       .  A
C1693      C1694   1.408       .  A
C1693      F1696   1.358       .  S
C1694      F1698   1.357       .  S
C1701      C1702   1.404       .  A
C1701      C1706   1.408       .  A
C1701      F1719   1.357       .  S
C1702      C1703   1.409       .  A
C1702      C1707   1.502       .  S
C1703      C1704   1.410       .  A
C1703      F1708   1.352       .  S
C1704      C1705   1.405       .  A
C1704      F1720   1.357       .  S
C1705      C1706   1.412       .  A
C1706      F1709   1.357       .  S
C1707      C1710   1.410       .  A
C1707      C1714   1.405       .  A
C1710      C1711   1.411       .  A
C1710      F1715   1.357       .  S
C1711      C1712   1.408       .  A
C1711      F1717   1.357       .  S
C1712      C1713   1.411       .  A
C1713      C1714   1.408       .  A
C1713      F1716   1.357       .  S
C1714      F1718   1.357       .  S
C1721      C1722   1.406       .  A
C1721      C1726   1.405       .  A
C1721      F1739   1.357       .  S
C1722      C1723   1.411       .  A
C1722      C1727   1.498       .  S
C1723      C1724   1.407       .  A
C1723      F1728   1.358       .  S
C1724      C1725   1.405       .  A
C1724      F1740   1.358       .  S
C1725      C1726   1.409       .  A
C1726      F1729   1.357       .  S
C1727      C1730   1.410       .  A
C1727      C1734   1.408       .  A
C1730      C1731   1.403       .  A
C1730      F1735   1.358       .  S
C1731      C1732   1.405       .  A
C1731      F1737   1.358   1_556  S
C1732      C1733   1.409       .  A
C1733      C1734   1.408       .  A
C1733      F1736   1.358       .  S
C1734      F1738   1.357       .  S
C1741      C1742   1.414       .  A
C1741      C1746   1.411       .  A
C1741      F1759   1.357       .  S
C1742      C1743   1.408       .  A
C1742      C1747   1.507       .  S
C1743      C1744   1.403       .  A
C1743      F1748   1.355       .  S
C1744      C1745   1.409       .  A
C1744      F1760   1.358       .  S
C1745      C1746   1.406       .  A
C1746      F1749   1.357       .  S
C1747      C1750   1.413       .  A
C1747      C1754   1.409       .  A
C1750      C1751   1.409       .  A
C1750      F1755   1.357       .  S
C1751      C1752   1.405       .  A
C1751      F1757   1.356       .  S
C1752      C1753   1.408       .  A
C1753      C1754   1.402       .  A
C1753      F1756   1.356   1_554  S
C1754      F1758   1.356       .  S
C1761      C1762   1.406       .  A
C1761      C1766   1.405       .  A
C1761      F1779   1.354       .  S
C1762      C1763   1.413       .  A
C1762      C1767   1.506       .  S
C1763      C1764   1.411       .  A
C1763      F1768   1.357       .  S
C1764      C1765   1.407       .  A
C1764      F1780   1.356       .  S
C1765      C1766   1.410       .  A
C1766      F1769   1.358       .  S
C1767      C1770   1.408       .  A
C1767      C1774   1.412       .  A
C1770      C1771   1.406       .  A
C1770      F1775   1.357       .  S
C1771      C1772   1.409       .  A
C1771      F1777   1.357       .  S
C1772      C1773   1.406       .  A
C1773      C1774   1.409       .  A
C1773      F1776   1.357       .  S
C1774      F1778   1.357       .  S
C1781      C1782   1.415       .  A
C1781      C1786   1.413       .  A
C1781      F1799   1.357       .  S
C1782      C1783   1.412       .  A
C1782      C1787   1.513       .  S
C1783      C1784   1.403       .  A
C1783      F1788   1.357       .  S
C1784      C1785   1.407       .  A
C1784      F1800   1.359       .  S
C1785      C1786   1.408       .  A
C1786      F1789   1.358       .  S
C1787      C1790   1.413       .  A
C1787      C1794   1.413       .  A
C1790      C1791   1.407       .  A
C1790      F1795   1.357       .  S
C1791      C1792   1.407       .  A
C1791      F1797   1.358       .  S
C1792      C1793   1.408       .  A
C1793      C1794   1.410       .  A
C1793      F1796   1.357       .  S
C1794      F1798   1.357       .  S
C1801      C1802   1.401       .  A
C1801      C1806   1.398   1_545  A
C1801      F1819   1.356   1_545  S
C1802      C1803   1.403       .  A
C1802      C1807   1.471       .  S
C1803      C1804   1.397       .  A
C1803      F1808   1.357       .  S
C1804      C1805   1.404   1_545  A
C1804      F1820   1.357       .  S
C1805      C1806   1.405       .  A
C1806      F1809   1.358       .  S
C1807      C1810   1.402       .  A
C1807      C1814   1.400       .  A
C1810      C1811   1.396       .  A
C1810      F1815   1.355       .  S
C1811      C1812   1.406       .  A
C1811      F1817   1.358       .  S
C1812      C1813   1.411       .  A
C1813      C1814   1.398       .  A
C1813      F1816   1.357       .  S
C1814      F1818   1.358       .  S
C1821      C1822   1.403       .  A
C1821      C1826   1.398       .  A
C1821      F1839   1.358       .  S
C1822      C1823   1.403       .  A
C1822      C1827   1.474       .  S
C1823      C1824   1.396       .  A
C1823      F1828   1.358       .  S
C1824      C1825   1.408       .  A
C1824      F1840   1.357       .  S
C1825      C1826   1.409       .  A
C1826      F1829   1.357       .  S
C1827      C1830   1.406       .  A
C1827      C1834   1.403       .  A
C1830      C1831   1.399       .  A
C1830      F1835   1.358       .  S
C1831      C1832   1.404       .  A
C1831      F1837   1.357       .  S
C1832      C1833   1.403       .  A
C1833      C1834   1.394       .  A
C1833      F1836   1.357       .  S
C1834      F1838   1.356       .  S
C1841      C1842   1.407       .  A
C1841      C1846   1.397       .  A
C1841      F1859   1.358       .  S
C1842      C1843   1.406       .  A
C1842      C1847   1.479       .  S
C1843      C1844   1.394       .  A
C1843      F1848   1.354       .  S
C1844      C1845   1.400       .  A
C1844      F1860   1.358       .  S
C1845      C1846   1.401       .  A
C1846      F1849   1.358       .  S
C1847      C1850   1.404       .  A
C1847      C1854   1.404       .  A
C1850      C1851   1.397       .  A
C1850      F1855   1.358       .  S
C1851      C1852   1.410       .  A
C1851      F1857   1.357       .  S
C1852      C1853   1.411       .  A
C1853      C1854   1.395       .  A
C1853      F1856   1.356       .  S
C1854      F1858   1.358       .  S
C1861      C1862   1.408       .  A
C1861      C1866   1.397       .  A
C1861      F1879   1.357       .  S
C1862      C1863   1.405       .  A
C1862      C1867   1.484       .  S
C1863      C1864   1.399       .  A
C1863      F1868   1.358       .  S
C1864      C1865   1.408       .  A
C1864      F1880   1.357       .  S
C1865      C1866   1.405       .  A
C1866      F1869   1.358       .  S
C1867      C1870   1.407       .  A
C1867      C1874   1.408       .  A
C1870      C1871   1.398       .  A
C1870      F1875   1.358       .  S
C1871      C1872   1.403       .  A
C1871      F1877   1.358       .  S
C1872      C1873   1.402       .  A
C1873      C1874   1.399       .  A
C1873      F1876   1.357       .  S
C1874      F1878   1.357       .  S
C1881      C1882   1.406       .  A
C1881      C1886   1.398       .  A
C1881      F1899   1.358       .  S
C1882      C1883   1.405       .  A
C1882      C1887   1.482       .  S
C1883      C1884   1.399       .  A
C1883      F1888   1.358       .  S
C1884      C1885   1.408       .  A
C1884      F1900   1.357       .  S
C1885      C1886   1.408       .  A
C1886      F1889   1.358       .  S
C1887      C1890   1.407       .  A
C1887      C1894   1.406       .  A
C1890      C1891   1.398       .  A
C1890      F1895   1.358       .  S
C1891      C1892   1.404       .  A
C1891      F1897   1.358       .  S
C1892      C1893   1.404       .  A
C1893      C1894   1.399       .  A
C1893      F1896   1.357       .  S
C1894      F1898   1.357       .  S
C1901      C1902   1.405       .  A
C1901      C1906   1.398       .  A
C1901      F1919   1.358   1_565  S
C1902      C1903   1.407       .  A
C1902      C1907   1.480   1_565  S
C1903      C1904   1.398       .  A
C1903      F1908   1.358       .  S
C1904      C1905   1.405       .  A
C1904      F1920   1.357       .  S
C1905      C1906   1.407       .  A
C1906      F1909   1.358       .  S
C1907      C1910   1.407       .  A
C1907      C1914   1.406       .  A
C1910      C1911   1.398       .  A
C1910      F1915   1.358       .  S
C1911      C1912   1.403       .  A
C1911      F1917   1.357       .  S
C1912      C1913   1.403       .  A
C1913      C1914   1.397       .  A
C1913      F1916   1.358       .  S
C1914      F1918   1.358   1_545  S
C1921      C1922   1.401       .  A
C1921      C1926   1.396       .  A
C1921      F1939   1.358       .  S
C1922      C1923   1.400       .  A
C1922      C1927   1.471       .  S
C1923      C1924   1.395       .  A
C1923      F1928   1.358       .  S
C1924      C1925   1.414       .  A
C1924      F1940   1.356       .  S
C1925      C1926   1.412       .  A
C1926      F1929   1.356       .  S
C1927      C1930   1.402       .  A
C1927      C1934   1.404       .  A
C1930      C1931   1.392       .  A
C1930      F1935   1.354       .  S
C1931      C1932   1.400       .  A
C1931      F1937   1.358       .  S
C1932      C1933   1.402       .  A
C1933      C1934   1.398       .  A
C1933      F1936   1.358       .  S
C1934      F1938   1.357       .  S
C1941      C1942   1.407   1_554  A
C1941      C1946   1.398       .  A
C1941      F1959   1.358       .  S
C1942      C1943   1.404       .  A
C1942      C1947   1.477       .  S
C1943      C1944   1.396   1_556  A
C1943      F1948   1.356       .  S
C1944      C1945   1.402       .  A
C1944      F1960   1.357       .  S
C1945      C1946   1.403       .  A
C1946      F1949   1.357       .  S
C1947      C1950   1.403       .  A
C1947      C1954   1.403       .  A
C1950      C1951   1.397       .  A
C1950      F1955   1.358       .  S
C1951      C1952   1.409       .  A
C1951      F1957   1.357       .  S
C1952      C1953   1.410       .  A
C1953      C1954   1.397       .  A
C1953      F1956   1.358       .  S
C1954      F1958   1.357       .  S
C1961      C1962   1.403       .  A
C1961      C1966   1.398       .  A
C1961      F1979   1.354   1_565  S
C1962      C1963   1.405       .  A
C1962      C1967   1.482   1_565  S
C1963      C1964   1.402       .  A
C1963      F1968   1.357       .  S
C1964      C1965   1.406       .  A
C1964      F1980   1.357       .  S
C1965      C1966   1.404       .  A
C1966      F1969   1.358       .  S
C1967      C1970   1.404       .  A
C1967      C1974   1.403       .  A
C1970      C1971   1.401       .  A
C1970      F1975   1.358   1_545  S
C1971      C1972   1.411       .  A
C1971      F1977   1.357       .  S
C1972      C1973   1.412       .  A
C1973      C1974   1.400       .  A
C1973      F1976   1.356       .  S
C1974      F1978   1.358       .  S
C1981      C1982   1.404       .  A
C1981      C1986   1.399       .  A
C1981      F1999   1.358       .  S
C1982      C1983   1.403       .  A
C1982      C1987   1.474       .  S
C1983      C1984   1.393       .  A
C1983      F1988   1.358       .  S
C1984      C1985   1.407       .  A
C1984      F2000   1.358       .  S
C1985      C1986   1.408       .  A
C1986      F1989   1.358       .  S
C1987      C1990   1.405       .  A
C1987      C1994   1.405       .  A
C1990      C1991   1.394       .  A
C1990      F1995   1.358       .  S
C1991      C1992   1.401       .  A
C1991      F1997   1.358       .  S
C1992      C1993   1.403       .  A
C1993      C1994   1.398       .  A
C1993      F1996   1.357       .  S
C1994      F1998   1.358       .  S
C2001      C2002   1.407       .  A
C2001      C2006   1.400       .  A
C2001      F2019   1.358       .  S
C2002      C2003   1.403       .  A
C2002      C2007   1.475       .  S
C2003      C2004   1.394       .  A
C2003      F2008   1.358       .  S
C2004      C2005   1.402       .  A
C2004      F2020   1.358       .  S
C2005      C2006   1.403       .  A
C2006      F2009   1.357       .  S
C2007      C2010   1.401       .  A
C2007      C2014   1.404       .  A
C2010      C2011   1.398       .  A
C2010      F2015   1.358       .  S
C2011      C2012   1.411       .  A
C2011      F2017   1.357       .  S
C2012      C2013   1.408       .  A
C2013      C2014   1.397       .  A
C2013      F2016   1.357       .  S
C2014      F2018   1.358       .  S
C2021      C2022   1.403       .  A
C2021      C2026   1.396       .  A
C2021      F2039   1.358       .  S
C2022      C2023   1.407       .  A
C2022      C2027   1.479       .  S
C2023      C2024   1.401       .  A
C2023      F2028   1.358       .  S
C2024      C2025   1.405       .  A
C2024      F2040   1.358       .  S
C2025      C2026   1.407       .  A
C2026      F2029   1.358       .  S
C2027      C2030   1.406       .  A
C2027      C2034   1.405       .  A
C2030      C2031   1.397       .  A
C2030      F2035   1.358       .  S
C2031      C2032   1.402       .  A
C2031      F2037   1.358       .  S
C2032      C2033   1.404       .  A
C2033      C2034   1.400       .  A
C2033      F2036   1.357       .  S
C2034      F2038   1.358       .  S
C2041      C2042   1.406       .  A
C2041      C2046   1.398       .  A
C2041      F2059   1.357       .  S
C2042      C2043   1.404       .  A
C2042      C2047   1.481       .  S
C2043      C2044   1.396       .  A
C2043      F2048   1.358       .  S
C2044      C2045   1.410       .  A
C2044      F2060   1.357       .  S
C2045      C2046   1.409       .  A
C2046      F2049   1.357       .  S
C2047      C2050   1.407       .  A
C2047      C2054   1.408       .  A
C2050      C2051   1.395       .  A
C2050      F2055   1.358       .  S
C2051      C2052   1.402       .  A
C2051      F2057   1.358       .  S
C2052      C2053   1.403       .  A
C2053      C2054   1.399       .  A
C2053      F2056   1.358       .  S
C2054      F2058   1.358       .  S
C2061      C2062   1.405       .  A
C2061      C2066   1.399       .  A
C2061      F2079   1.358       .  S
C2062      C2063   1.405       .  A
C2062      C2067   1.478       .  S
C2063      C2064   1.400       .  A
C2063      F2068   1.357       .  S
C2064      C2065   1.404       .  A
C2064      F2080   1.357       .  S
C2065      C2066   1.405       .  A
C2066      F2069   1.357       .  S
C2067      C2070   1.405       .  A
C2067      C2074   1.402       .  A
C2070      C2071   1.401       .  A
C2070      F2075   1.357       .  S
C2071      C2072   1.408       .  A
C2071      F2077   1.358       .  S
C2072      C2073   1.410       .  A
C2073      C2074   1.398       .  A
C2073      F2076   1.357       .  S
C2074      F2078   1.358       .  S
C2081      C2082   1.407       .  A
C2081      C2086   1.397       .  A
C2081      F2099   1.358       .  S
C2082      C2083   1.406       .  A
C2082      C2087   1.479       .  S
C2083      C2084   1.395       .  A
C2083      F2088   1.357       .  S
C2084      C2085   1.403       .  A
C2084      F2100   1.358       .  S
C2085      C2086   1.402       .  A
C2086      F2089   1.357       .  S
C2087      C2090   1.404       .  A
C2087      C2094   1.406       .  A
C2090      C2091   1.397       .  A
C2090      F2095   1.358       .  S
C2091      C2092   1.409       .  A
C2091      F2097   1.356       .  S
C2092      C2093   1.406       .  A
C2093      C2094   1.396       .  A
C2093      F2096   1.357       .  S
C2094      F2098   1.357       .  S
C2101      C2102   1.405       .  A
C2101      C2106   1.396       .  A
C2101      F2119   1.358       .  S
C2102      C2103   1.405       .  A
C2102      C2107   1.475       .  S
C2103      C2104   1.396       .  A
C2103      F2108   1.358       .  S
C2104      C2105   1.403       .  A
C2104      F2120   1.357       .  S
C2105      C2106   1.402       .  A
C2106      F2109   1.357       .  S
C2107      C2110   1.403       .  A
C2107      C2114   1.404       .  A
C2110      C2111   1.396       .  A
C2110      F2115   1.358       .  S
C2111      C2112   1.408       .  A
C2111      F2117   1.358       .  S
C2112      C2113   1.406       .  A
C2113      C2114   1.397       .  A
C2113      F2116   1.358       .  S
C2114      F2118   1.358       .  S
C2121      C2122   1.402       .  A
C2121      C2126   1.394       .  A
C2121      F2139   1.358       .  S
C2122      C2123   1.405       .  A
C2122      C2127   1.473       .  S
C2123      C2124   1.397       .  A
C2123      F2128   1.358       .  S
C2124      C2125   1.406       .  A
C2124      F2140   1.358       .  S
C2125      C2126   1.409       .  A
C2126      F2129   1.357       .  S
C2127      C2130   1.405       .  A
C2127      C2134   1.405       .  A
C2130      C2131   1.396       .  A
C2130      F2135   1.358       .  S
C2131      C2132   1.403       .  A
C2131      F2137   1.357       .  S
C2132      C2133   1.403       .  A
C2133      C2134   1.396       .  A
C2133      F2136   1.358       .  S
C2134      F2138   1.358       .  S
C2141      C2142   1.399       .  A
C2141      C2146   1.395       .  A
C2141      F2159   1.357       .  S
C2142      C2143   1.401       .  A
C2142      C2147   1.468       .  S
C2143      C2144   1.398       .  A
C2143      F2148   1.358       .  S
C2144      C2145   1.411       .  A
C2144      F2160   1.357       .  S
C2145      C2146   1.409       .  A
C2146      F2149   1.355       .  S
C2147      C2150   1.401       .  A
C2147      C2154   1.400       .  A
C2150      C2151   1.397       .  A
C2150      F2155   1.358       .  S
C2151      C2152   1.405       .  A
C2151      F2157   1.358       .  S
C2152      C2153   1.404       .  A
C2153      C2154   1.396       .  A
C2153      F2156   1.357       .  S
C2154      F2158   1.355       .  S
C2161      C2162   1.400       .  A
C2161      C2166   1.395       .  A
C2161      F2179   1.357       .  S
C2162      C2163   1.402       .  A
C2162      C2167   1.473       .  S
C2163      C2164   1.401       .  A
C2163      F2168   1.358       .  S
C2164      C2165   1.409       .  A
C2164      F2180   1.357       .  S
C2165      C2166   1.409       .  A
C2166      F2169   1.357       .  S
C2167      C2170   1.402       .  A
C2167      C2174   1.404       .  A
C2170      C2171   1.396       .  A
C2170      F2175   1.358       .  S
C2171      C2172   1.403       .  A
C2171      F2177   1.358       .  S
C2172      C2173   1.406       .  A
C2173      C2174   1.401       .  A
C2173      F2176   1.357       .  S
C2174      F2178   1.357       .  S
C2181      C2182   1.402       .  A
C2181      C2186   1.394       .  A
C2181      F2199   1.358       .  S
C2182      C2183   1.405       .  A
C2182      C2187   1.474       .  S
C2183      C2184   1.399       .  A
C2183      F2188   1.358       .  S
C2184      C2185   1.406       .  A
C2184      F2200   1.357       .  S
C2185      C2186   1.408       .  A
C2186      F2189   1.357       .  S
C2187      C2190   1.405       .  A
C2187      C2194   1.404       .  A
C2190      C2191   1.397       .  A
C2190      F2195   1.357       .  S
C2191      C2192   1.403       .  A
C2191      F2197   1.357       .  S
C2192      C2193   1.403       .  A
C2193      C2194   1.396       .  A
C2193      F2196   1.358       .  S
C2194      F2198   1.358       .  S
C2201      C2202   1.407       .  A
C2201      C2206   1.401       .  A
C2201      F2219   1.357       .  S
C2202      C2203   1.406       .  A
C2202      C2207   1.481       .  S
C2203      C2204   1.396       .  A
C2203      F2208   1.358       .  S
C2204      C2205   1.401       .  A
C2204      F2220   1.358       .  S
C2205      C2206   1.404       .  A
C2206      F2209   1.357       .  S
C2207      C2210   1.407       .  A
C2207      C2214   1.407       .  A
C2210      C2211   1.399       .  A
C2210      F2215   1.358       .  S
C2211      C2212   1.403       .  A
C2211      F2217   1.358       .  S
C2212      C2213   1.402       .  A
C2213      C2214   1.396       .  A
C2213      F2216   1.358       .  S
C2214      F2218   1.355       .  S
C2221      C2222   1.406       .  A
C2221      C2226   1.396   1_455  A
C2221      F2239   1.358       .  S
C2222      C2223   1.406   1_455  A
C2222      C2227   1.476       .  S
C2223      C2224   1.398       .  A
C2223      F2228   1.358       .  S
C2224      C2225   1.402       .  A
C2224      F2240   1.356       .  S
C2225      C2226   1.401       .  A
C2226      F2229   1.358       .  S
C2227      C2230   1.403       .  A
C2227      C2234   1.403       .  A
C2230      C2231   1.397       .  A
C2230      F2235   1.358       .  S
C2231      C2232   1.409       .  A
C2231      F2237   1.357       .  S
C2232      C2233   1.408       .  A
C2233      C2234   1.396       .  A
C2233      F2236   1.357       .  S
C2234      F2238   1.357       .  S
C2241      C2242   1.399       .  A
C2241      C2246   1.396       .  A
C2241      F2259   1.358       .  S
C2242      C2243   1.399       .  A
C2242      C2247   1.471       .  S
C2243      C2244   1.392       .  A
C2243      F2248   1.357       .  S
C2244      C2245   1.414       .  A
C2244      F2260   1.355       .  S
C2245      C2246   1.416       .  A
C2246      F2249   1.355       .  S
C2247      C2250   1.405       .  A
C2247      C2254   1.404       .  A
C2250      C2251   1.391       .  A
C2250      F2255   1.358       .  S
C2251      C2252   1.401       .  A
C2251      F2257   1.358       .  S
C2252      C2253   1.404       .  A
C2253      C2254   1.398       .  A
C2253      F2256   1.358       .  S
C2254      F2258   1.357       .  S
C2261      C2262   1.403       .  A
C2261      C2266   1.397       .  A
C2261      F2279   1.358       .  S
C2262      C2263   1.404       .  A
C2262      C2267   1.468       .  S
C2263      C2264   1.394       .  A
C2263      F2268   1.358       .  S
C2264      C2265   1.402       .  A
C2264      F2280   1.357       .  S
C2265      C2266   1.403       .  A
C2266      F2269   1.357       .  S
C2267      C2270   1.401       .  A
C2267      C2274   1.401       .  A
C2270      C2271   1.392       .  A
C2270      F2275   1.355       .  S
C2271      C2272   1.405       .  A
C2271      F2277   1.357       .  S
C2272      C2273   1.411       .  A
C2273      C2274   1.399       .  A
C2273      F2276   1.357       .  S
C2274      F2278   1.358       .  S
C2281      C2282   1.403       .  A
C2281      C2286   1.395       .  A
C2281      F2299   1.358       .  S
C2282      C2283   1.403       .  A
C2282      C2287   1.473       .  S
C2283      C2284   1.400       .  A
C2283      F2288   1.358       .  S
C2284      C2285   1.410       .  A
C2284      F2300   1.357       .  S
C2285      C2286   1.407       .  A
C2286      F2289   1.357       .  S
C2287      C2290   1.404       .  A
C2287      C2294   1.404       .  A
C2290      C2291   1.399       .  A
C2290      F2295   1.357       .  S
C2291      C2292   1.405       .  A
C2291      F2297   1.358       .  S
C2292      C2293   1.403       .  A
C2293      C2294   1.394       .  A
C2293      F2296   1.357       .  S
C2294      F2298   1.358       .  S
C2301      C2302   1.405       .  A
C2301      C2306   1.397       .  A
C2301      F2319   1.358       .  S
C2302      C2303   1.405       .  A
C2302      C2307   1.481       .  S
C2303      C2304   1.399       .  A
C2303      F2308   1.358       .  S
C2304      C2305   1.410       .  A
C2304      F2320   1.357       .  S
C2305      C2306   1.408       .  A
C2306      F2309   1.358       .  S
C2307      C2310   1.406       .  A
C2307      C2314   1.407       .  A
C2310      C2311   1.398       .  A
C2310      F2315   1.358       .  S
C2311      C2312   1.404   1_655  A
C2311      F2317   1.358       .  S
C2312      C2313   1.404       .  A
C2313      C2314   1.398   1_455  A
C2313      F2316   1.357       .  S
C2314      F2318   1.358       .  S
C2321      C2322   1.403       .  A
C2321      C2326   1.399       .  A
C2321      F2339   1.358       .  S
C2322      C2323   1.403       .  A
C2322      C2327   1.475   1_554  S
C2323      C2324   1.396       .  A
C2323      F2328   1.357       .  S
C2324      C2325   1.406       .  A
C2324      F2340   1.357       .  S
C2325      C2326   1.409       .  A
C2326      F2329   1.357       .  S
C2327      C2330   1.405       .  A
C2327      C2334   1.404       .  A
C2330      C2331   1.396       .  A
C2330      F2335   1.358       .  S
C2331      C2332   1.403       .  A
C2331      F2337   1.357       .  S
C2332      C2333   1.405       .  A
C2333      C2334   1.398       .  A
C2333      F2336   1.358       .  S
C2334      F2338   1.358   1_556  S
C2341      C2342   1.402       .  A
C2341      C2346   1.397       .  A
C2341      F2359   1.358       .  S
C2342      C2343   1.403       .  A
C2342      C2347   1.476       .  S
C2343      C2344   1.398       .  A
C2343      F2348   1.356       .  S
C2344      C2345   1.408       .  A
C2344      F2360   1.358       .  S
C2345      C2346   1.410       .  A
C2346      F2349   1.357       .  S
C2347      C2350   1.405       .  A
C2347      C2354   1.404       .  A
C2350      C2351   1.398       .  A
C2350      F2355   1.358       .  S
C2351      C2352   1.404       .  A
C2351      F2357   1.357       .  S
C2352      C2353   1.403       .  A
C2353      C2354   1.397       .  A
C2353      F2356   1.358       .  S
C2354      F2358   1.357       .  S
C2361      C2362   1.406       .  A
C2361      C2366   1.395       .  A
C2361      F2379   1.356       .  S
C2362      C2363   1.407       .  A
C2362      C2367   1.486       .  S
C2363      C2364   1.400       .  A
C2363      F2368   1.358       .  S
C2364      C2365   1.409       .  A
C2364      F2380   1.357       .  S
C2365      C2366   1.408       .  A
C2366      F2369   1.357       .  S
C2367      C2370   1.407       .  A
C2367      C2374   1.409       .  A
C2370      C2371   1.396       .  A
C2370      F2375   1.354       .  S
C2371      C2372   1.402       .  A
C2371      F2377   1.357       .  S
C2372      C2373   1.402       .  A
C2373      C2374   1.399       .  A
C2373      F2376   1.358       .  S
C2374      F2378   1.358       .  S
C2381      C2382   1.404       .  A
C2381      C2386   1.397       .  A
C2381      F2399   1.358       .  S
C2382      C2383   1.403       .  A
C2382      C2387   1.474       .  S
C2383      C2384   1.398       .  A
C2383      F2388   1.358       .  S
C2384      C2385   1.409       .  A
C2384      F2400   1.358       .  S
C2385      C2386   1.406       .  A
C2386      F2389   1.357       .  S
C2387      C2390   1.404       .  A
C2387      C2394   1.404   1_556  A
C2390      C2391   1.398   1_556  A
C2390      F2395   1.358       .  S
C2391      C2392   1.404       .  A
C2391      F2397   1.358       .  S
C2392      C2393   1.405       .  A
C2393      C2394   1.397       .  A
C2393      F2396   1.357       .  S
C2394      F2398   1.358       .  S
C2401      C2402   1.399       .  A
C2401      C2406   1.396       .  A
C2401      F2419   1.358       .  S
C2402      C2403   1.401       .  A
C2402      C2407   1.472       .  S
C2403      C2404   1.400       .  A
C2403      F2408   1.358       .  S
C2404      C2405   1.413       .  A
C2404      F2420   1.356       .  S
C2405      C2406   1.414       .  A
C2406      F2409   1.356       .  S
C2407      C2410   1.403       .  A
C2407      C2414   1.402       .  A
C2410      C2411   1.398       .  A
C2410      F2415   1.358       .  S
C2411      C2412   1.405       .  A
C2411      F2417   1.358       .  S
C2412      C2413   1.404       .  A
C2413      C2414   1.397       .  A
C2413      F2416   1.356       .  S
C2414      F2418   1.357       .  S
C2421      C2422   1.402       .  A
C2421      C2426   1.396       .  A
C2421      F2439   1.358       .  S
C2422      C2423   1.400       .  A
C2422      C2427   1.463       .  S
C2423      C2424   1.394       .  A
C2423      F2428   1.358       .  S
C2424      C2425   1.406       .  A
C2424      F2440   1.358       .  S
C2425      C2426   1.404       .  A
C2426      F2429   1.358       .  S
C2427      C2430   1.402       .  A
C2427      C2434   1.401       .  A
C2430      C2431   1.395       .  A
C2430      F2435   1.358       .  S
C2431      C2432   1.404       .  A
C2431      F2437   1.358       .  S
C2432      C2433   1.402       .  A
C2433      C2434   1.393       .  A
C2433      F2436   1.357       .  S
C2434      F2438   1.358       .  S
C2441      C2442   1.404       .  A
C2441      C2446   1.396       .  A
C2441      F2459   1.358       .  S
C2442      C2443   1.407       .  A
C2442      C2447   1.478       .  S
C2443      C2444   1.399       .  A
C2443      F2448   1.358       .  S
C2444      C2445   1.403       .  A
C2444      F2460   1.357       .  S
C2445      C2446   1.403       .  A
C2446      F2449   1.358       .  S
C2447      C2450   1.406   1_455  A
C2447      C2454   1.403       .  A
C2450      C2451   1.398       .  A
C2450      F2455   1.358       .  S
C2451      C2452   1.405       .  A
C2451      F2457   1.357       .  S
C2452      C2453   1.409       .  A
C2453      C2454   1.398   1_655  A
C2453      F2456   1.358       .  S
C2454      F2458   1.358       .  S
C2461      C2462   1.404       .  A
C2461      C2466   1.400       .  A
C2461      F2479   1.358       .  S
C2462      C2463   1.404       .  A
C2462      C2467   1.478       .  S
C2463      C2464   1.395       .  A
C2463      F2468   1.356       .  S
C2464      C2465   1.407       .  A
C2464      F2480   1.358       .  S
C2465      C2466   1.410       .  A
C2466      F2469   1.357       .  S
C2467      C2470   1.406       .  A
C2467      C2474   1.405       .  A
C2470      C2471   1.398       .  A
C2470      F2475   1.358       .  S
C2471      C2472   1.404       .  A
C2471      F2477   1.357       .  S
C2472      C2473   1.404       .  A
C2473      C2474   1.398       .  A
C2473      F2476   1.357       .  S
C2474      F2478   1.358       .  S
C2481      C2482   1.404       .  A
C2481      C2486   1.401       .  A
C2481      F2499   1.358       .  S
C2482      C2483   1.403       .  A
C2482      C2487   1.478       .  S
C2483      C2484   1.393       .  A
C2483      F2488   1.353       .  S
C2484      C2485   1.404       .  A
C2484      F2500   1.358       .  S
C2485      C2486   1.409       .  A
C2486      F2489   1.357       .  S
C2487      C2490   1.407       .  A
C2487      C2494   1.405       .  A
C2490      C2491   1.397       .  A
C2490      F2495   1.358       .  S
C2491      C2492   1.402       .  A
C2491      F2497   1.357       .  S
C2492      C2493   1.403       .  A
C2493      C2494   1.398       .  A
C2493      F2496   1.357   1_554  S
C2494      F2498   1.358       .  S
C2501      C2502   1.404       .  A
C2501      C2506   1.397       .  A
C2501      F2519   1.356       .  S
C2502      C2503   1.405       .  A
C2502      C2507   1.476       .  S
C2503      C2504   1.396       .  A
C2503      F2508   1.358       .  S
C2504      C2505   1.404       .  A
C2504      F2520   1.357       .  S
C2505      C2506   1.404       .  A
C2506      F2509   1.357   1_455  S
C2507      C2510   1.405       .  A
C2507      C2514   1.402       .  A
C2510      C2511   1.398       .  A
C2510      F2515   1.357       .  S
C2511      C2512   1.406       .  A
C2511      F2517   1.358       .  S
C2512      C2513   1.410       .  A
C2513      C2514   1.397       .  A
C2513      F2516   1.357       .  S
C2514      F2518   1.358       .  S
C2521      C2522   1.405       .  A
C2521      C2526   1.395       .  A
C2521      F2539   1.357       .  S
C2522      C2523   1.408       .  A
C2522      C2527   1.483       .  S
C2523      C2524   1.399       .  A
C2523      F2528   1.357       .  S
C2524      C2525   1.406       .  A
C2524      F2540   1.357       .  S
C2525      C2526   1.408       .  A
C2526      F2529   1.358       .  S
C2527      C2530   1.407       .  A
C2527      C2534   1.409       .  A
C2530      C2531   1.397       .  A
C2530      F2535   1.357       .  S
C2531      C2532   1.399       .  A
C2531      F2537   1.354       .  S
C2532      C2533   1.401       .  A
C2533      C2534   1.399       .  A
C2533      F2536   1.358       .  S
C2534      F2538   1.358       .  S
C2541      C2542   1.405       .  A
C2541      C2546   1.396       .  A
C2541      F2559   1.358       .  S
C2542      C2543   1.401       .  A
C2542      C2547   1.468       .  S
C2543      C2544   1.395       .  A
C2543      F2548   1.358       .  S
C2544      C2545   1.407       .  A
C2544      F2560   1.358       .  S
C2545      C2546   1.402       .  A
C2546      F2549   1.357       .  S
C2547      C2550   1.403       .  A
C2547      C2554   1.403       .  A
C2550      C2551   1.395       .  A
C2550      F2555   1.358       .  S
C2551      C2552   1.402       .  A
C2551      F2557   1.358       .  S
C2552      C2553   1.403       .  A
C2553      C2554   1.395       .  A
C2553      F2556   1.357       .  S
C2554      F2558   1.358       .  S
C2561      C2562   1.405       .  A
C2561      C2566   1.400       .  A
C2561      F2579   1.358       .  S
C2562      C2563   1.404       .  A
C2562      C2567   1.477       .  S
C2563      C2564   1.396       .  A
C2563      F2568   1.358       .  S
C2564      C2565   1.406       .  A
C2564      F2580   1.358       .  S
C2565      C2566   1.407       .  A
C2566      F2569   1.358       .  S
C2567      C2570   1.405       .  A
C2567      C2574   1.405       .  A
C2570      C2571   1.396       .  A
C2570      F2575   1.358       .  S
C2571      C2572   1.403       .  A
C2571      F2577   1.358       .  S
C2572      C2573   1.406       .  A
C2573      C2574   1.400       .  A
C2573      F2576   1.357       .  S
C2574      F2578   1.357       .  S
C2581      C2582   1.403       .  A
C2581      C2586   1.401       .  A
C2581      F2599   1.358       .  S
C2582      C2583   1.401       .  A
C2582      C2587   1.477       .  S
C2583      C2584   1.398       .  A
C2583      F2588   1.358       .  S
C2584      C2585   1.412       .  A
C2584      F2600   1.356       .  S
C2585      C2586   1.412       .  A
C2586      F2589   1.357       .  S
C2587      C2590   1.405       .  A
C2587      C2594   1.403       .  A
C2590      C2591   1.400       .  A
C2590      F2595   1.358       .  S
C2591      C2592   1.404       .  A
C2591      F2597   1.357       .  S
C2592      C2593   1.404       .  A
C2593      C2594   1.400       .  A
C2593      F2596   1.357       .  S
C2594      F2598   1.356       .  S
C2601      C2602   1.406       .  A
C2601      C2606   1.396       .  A
C2601      F2619   1.357       .  S
C2602      C2603   1.409       .  A
C2602      C2607   1.482       .  S
C2603      C2604   1.398       .  A
C2603      F2608   1.358       .  S
C2604      C2605   1.402       .  A
C2604      F2620   1.358       .  S
C2605      C2606   1.403       .  A
C2606      F2609   1.358       .  S
C2607      C2610   1.405       .  A
C2607      C2614   1.405       .  A
C2610      C2611   1.395       .  A
C2610      F2615   1.357       .  S
C2611      C2612   1.408       .  A
C2611      F2617   1.357       .  S
C2612      C2613   1.412       .  A
C2613      C2614   1.400       .  A
C2613      F2616   1.357       .  S
C2614      F2618   1.358       .  S
C2621      C2622   1.403       .  A
C2621      C2626   1.398       .  A
C2621      F2639   1.358       .  S
C2622      C2623   1.402       .  A
C2622      C2627   1.477       .  S
C2623      C2624   1.397       .  A
C2623      F2628   1.354       .  S
C2624      C2625   1.408       .  A
C2624      F2640   1.357       .  S
C2625      C2626   1.409       .  A
C2626      F2629   1.357       .  S
C2627      C2630   1.404       .  A
C2627      C2634   1.407       .  A
C2630      C2631   1.397       .  A
C2630      F2635   1.358       .  S
C2631      C2632   1.402       .  A
C2631      F2637   1.356       .  S
C2632      C2633   1.401       .  A
C2633      C2634   1.398       .  A
C2633      F2636   1.357       .  S
C2634      F2638   1.358       .  S
