geometry optimzed in LAMMPS
_audit_creation_date              2020-11-30 
_audit_creation_method            'lammps2cif' 
_symmetry_space_group_name_H-M    'P1' 
_symmetry_Int_Tables_number       1 
_symmetry_cell_setting            triclinic 
loop_ 
_symmetry_equiv_pos_as_xyz 
  x,y,z 
_cell_length_a                    32.13365541 
_cell_length_b                    32.02685496907133 
_cell_length_c                    32.744779496530796 
_cell_angle_alpha                 90.30502087239918 
_cell_angle_beta                  88.70484791818521 
_cell_angle_gamma                 90.43117047546504 
loop_ 
_atom_site_label 
_atom_site_type_symbol 
_atom_site_fract_x 
_atom_site_fract_y 
_atom_site_fract_z 
_atom_site_charge 
C1          C  0.78868646  0.76340472  0.39961795     0.01900
C2          C  0.75003909  0.77020322  0.42019254     0.01800
C3          C  0.71915057  0.74194190  0.40766150    -0.18700
C4          C  0.71505585  0.73778401  0.36548123     0.01900
C5          C  0.75200900  0.73310760  0.34268988     0.01800
C6          C  0.78774521  0.75290992  0.35810307    -0.18700
H7          H  0.81738353  0.74852057  0.34243419     0.03900
H8          H  0.69208931  0.73612520  0.42686743     0.03900
C9          C  0.79521079  0.24085141  0.36098037     0.01900
C10         C  0.76946805  0.22428385  0.39300511     0.01800
C11         C  0.73064788  0.24320441  0.40128418    -0.18700
C12         C  0.71041662  0.26485231  0.37043975     0.01900
C13         C  0.73661070  0.28227577  0.33957933     0.01800
C14         C  0.77469096  0.26243083  0.33026717    -0.18700
H15         H  0.79376460  0.27486289  0.30529605     0.03900
H16         H  0.71132057  0.23044554  0.42581272     0.03900
C17         C  0.20613479  0.21517853  0.36735258     0.01900
C18         C  0.24032913  0.19168363  0.37997506     0.01800
C19         C  0.28039671  0.20820460  0.37380090    -0.18700
C20         C  0.28832651  0.24749523  0.35615999     0.01900
C21         C  0.25377253  0.26855872  0.33963800     0.01800
C22         C  0.21415914  0.24947546  0.34231486    -0.18700
H23         H  0.18730952  0.26684117  0.33217196     0.03900
H24         H  0.30613786  0.18840432  0.38163739     0.03900
C25         C  0.24138425  0.79640616  0.37425146     0.01900
C26         C  0.21699656  0.76438326  0.39396790     0.01800
C27         C  0.22970422  0.72253078  0.39101351    -0.18700
C28         C  0.26375760  0.70990188  0.36708313     0.01900
C29         C  0.29032000  0.74155803  0.35128055     0.01800
C30         C  0.27579489  0.78264960  0.35057991    -0.18700
H31         H  0.29741802  0.80501151  0.33735651     0.03900
H32         H  0.20892463  0.69832264  0.40308568     0.03900
C33         C  0.24425908  0.78276007  0.10587795     0.01900
C34         C  0.20683110  0.77601672  0.12709495     0.01800
C35         C  0.21006257  0.76747983  0.16882044    -0.18700
C36         C  0.24072386  0.73846852  0.17935336     0.01900
C37         C  0.27963721  0.74417557  0.15842227     0.01800
C38         C  0.27974292  0.76316699  0.12008450    -0.18700
H39         H  0.30938446  0.77008580  0.10508188     0.03900
H40         H  0.18220392  0.76992965  0.18777804     0.03900
C41         C  0.77038535  0.80060520  0.11461706     0.01900
C42         C  0.80581984  0.77446159  0.11297621     0.01800
C43         C  0.80155658  0.73411352  0.12910203    -0.18700
C44         C  0.76304771  0.71572373  0.13940678     0.01900
C45         C  0.72886360  0.74364221  0.14513421     0.01800
C46         C  0.73472956  0.78596147  0.13524378    -0.18700
H47         H  0.70856713  0.80708993  0.13885381     0.03900
H48         H  0.82911920  0.71517409  0.13065096     0.03900
C49         C  0.72415779  0.23924093  0.09159362     0.01900
C50         C  0.75965497  0.26333632  0.08361728     0.01800
C51         C  0.76577957  0.30010755  0.10550852    -0.18700
C52         C  0.74140354  0.30939982  0.13988852     0.01900
C53         C  0.70596987  0.28440985  0.14849660     0.01800
C54         C  0.69584965  0.25220295  0.12133516    -0.18700
H55         H  0.66848208  0.23285154  0.12729725     0.03900
H56         H  0.79299441  0.31933550  0.09843587     0.03900
O57         O  0.47760869  0.79026511  0.28959890    -0.82200
C58         C  0.50640999  0.93125912  0.18416265     0.97100
O59         O  0.47637075  0.92770856  0.21059616    -0.71300
O60         O  0.43683689  0.85615877  0.20283234    -0.74900
Al61       Al  0.45945566  0.88215915  0.24925469     1.49000
C62         C  0.43474466  0.81728755  0.19716471     0.92400
O63         O  0.54189856  0.79899992  0.19206303    -0.81200
O64         O  0.57328411  0.86043177  0.29158865    -0.74700
Al65       Al  0.50962007  0.79963095  0.24148053     1.90100
O66         O  0.58788221  0.84448787  0.21155164    -0.73800
O67         O  0.53544822  0.93250293  0.27580074    -0.73600
O68         O  0.53982192  0.91134538  0.19038828    -0.79300
O69         O  0.47507598  0.91195157  0.29949829    -0.77500
O70         O  0.50758252  0.85532712  0.24444755    -1.13600
O71         O  0.43198601  0.84042593  0.28449230    -0.72800
C72         C  0.44219229  0.80476196  0.29779907     0.97900
C73         C  0.57914532  0.81098024  0.19290641     0.94300
Al74       Al  0.55477243  0.88502021  0.24215260     1.55600
O75         O  0.46225123  0.79335916  0.20991090    -0.77500
C76         C  0.50644068  0.93567763  0.30278209     0.98500
C77         C  0.57683631  0.82125879  0.29617078     0.93300
O78         O  0.55687274  0.79569179  0.27449176    -0.82800
O79         O  0.69903649  0.97520299  0.04149028    -0.82200
C80         C  0.56701252  0.00884985  0.42925836     0.97100
O81         O  0.56728082  0.97761591  0.45319720    -0.71300
O82         O  0.64055848  0.94239523  0.43986406    -0.74900
Al83       Al  0.61393437  0.95684990  0.99081667     1.49000
C84         C  0.67918062  0.93535292  0.43966410     0.92400
O85         O  0.70128870  0.03828132  0.44156894    -0.81200
O86         O  0.63663192  0.06984247  0.03974291    -0.74700
Al87       Al  0.69594897  0.00778192  0.49091306     1.90100
O88         O  0.65480130  0.08555164  0.45806429    -0.73800
O89         O  0.56624906  0.03294597  0.02671445    -0.73600
O90         O  0.58692040  0.04136427  0.43914402    -0.79300
O91         O  0.58520478  0.96981874  0.04161132    -0.77500
O92         O  0.64032953  0.00704061  0.48988591    -1.13600
O93         O  0.65368220  0.92740227  0.02392825    -0.72800
C94         C  0.68623779  0.93790982  0.04295606     0.97900
C95         C  0.68854712  0.07520623  0.43955466     0.94300
Al96       Al  0.61353257  0.05208440  0.99078317     1.55600
O97         O  0.70332054  0.95874066  0.45937702    -0.77500
C98         C  0.56579700  0.00253580  0.05183331     0.98500
C99         C  0.67482637  0.07760068  0.04189193     0.93300
O100        O  0.70156268  0.05562761  0.02316164    -0.82800
O101        O  0.29731931  0.95366589  0.48271637    -0.82200
C102        C  0.44330357  0.00058352  0.05238070     0.97100
O103        O  0.43460018  0.96578364  0.03452393    -0.71300
O104        O  0.36736120  0.91603538  0.02797881    -0.74900
Al105      Al  0.39348244  0.95201337  0.48962684     1.49000
C106        C  0.33869638  0.92108888  0.05381814     0.92400
O107        O  0.31909992  0.03754250  0.06068642    -0.81200
O108        O  0.34981537  0.06101902  0.44976465    -0.74700
Al109      Al  0.31276933  0.99605888  0.51940196     1.90100
O110        O  0.35971450  0.08045436  0.02864189    -0.73800
O111        O  0.42807750  0.03608701  0.44846968    -0.73600
O112        O  0.43150937  0.03535990  0.03684465    -0.79300
O113        O  0.43023576  0.96939674  0.44463971    -0.77500
O114        O  0.36508151  0.99887180  0.49982415    -1.13600
O115        O  0.35363318  0.93387281  0.44826249    -0.72800
C116        C  0.31402246  0.93283236  0.45419227     0.97900
C117        C  0.32949521  0.07432700  0.05254078     0.94300
Al118      Al  0.38919838  0.04834808  0.49205809     1.55600
O119        O  0.32704019  0.95738873  0.06228810    -0.77500
C120        C  0.44066721  0.00411365  0.43007544     0.98500
C121        C  0.31028603  0.05589688  0.45265979     0.93300
O122        O  0.29355776  0.03369032  0.48036099    -0.82800
O123        O  0.46713405  0.21299124  0.18729745    -0.82200
C124        C  0.50413118  0.08675349  0.30835655     0.97100
O125        O  0.47116692  0.08957325  0.28691964    -0.71300
O126        O  0.43232461  0.16626265  0.28618584    -0.74900
Al127      Al  0.45038273  0.12634261  0.24404684     1.49000
C128        C  0.43766727  0.20611205  0.28862084     0.92400
O129        O  0.54568385  0.21509291  0.27318030    -0.81200
O130        O  0.58975832  0.15692428  0.22195596    -0.74700
Al131      Al  0.50704373  0.21240903  0.22964352     1.90100
O132        O  0.56052421  0.14944753  0.29241427    -0.73800
O133        O  0.53504142  0.09738574  0.18649316    -0.73600
O134        O  0.53695245  0.10874986  0.29922793    -0.79300
O135        O  0.46688335  0.08654281  0.19930800    -0.77500
O136        O  0.50082830  0.15498126  0.23761880    -1.13600
O137        O  0.42461540  0.16022261  0.20480223    -0.72800
C138        C  0.43192393  0.19438108  0.18630531     0.97900
C139        C  0.56435621  0.18978723  0.29654796     0.94300
Al140      Al  0.54635446  0.11978249  0.24100824     1.55600
O141        O  0.46488650  0.22574243  0.26764175    -0.77500
C142        C  0.50022895  0.08005840  0.17711184     0.98500
C143        C  0.58569546  0.19140348  0.20342025     0.93300
O144        O  0.55026318  0.20201089  0.19078848    -0.82800
C145        C  0.50483515  0.96551979  0.14974080     0.86100
C146        C  0.46790780  0.96610122  0.11910549    -0.54200
C147        C  0.46769563  0.00013209  0.09245828     0.09000
C148        C  0.50325581  0.03193619  0.10195410     0.19900
C149        C  0.54332150  0.97038943  0.12017511    -0.54900
C150        C  0.54170456  0.00356416  0.09294809     0.09100
C151        C  0.50204833  0.00628014  0.17235216    -0.54400
C152        C  0.50122669  0.04127172  0.15008243     0.09700
H153        H  0.44658363  0.93987230  0.11610572     0.14200
H154        H  0.50285914  0.06032010  0.08265952    -0.00100
H155        H  0.56665516  0.94613793  0.11722486     0.14500
H156        H  0.50144973  0.00745899  0.20557775     0.14300
C157        C  0.50550461  0.04962360  0.33813553     0.86100
C158        C  0.46767926  0.04434868  0.36810578    -0.54200
C159        C  0.46764323  0.00833835  0.39133020     0.09000
C160        C  0.50513553  0.97954122  0.37980654     0.19900
C161        C  0.54318266  0.04482418  0.36595908    -0.54900
C162        C  0.54238839  0.00944712  0.39006905     0.09100
C163        C  0.50583696  0.01066470  0.31176390    -0.54400
C164        C  0.50554710  0.97372368  0.33120370     0.09700
H165        H  0.44496865  0.06890847  0.37304206     0.14200
H166        H  0.50527280  0.94984929  0.39713838    -0.00100
H167        H  0.56579184  0.06953805  0.36979351     0.14500
H168        H  0.50630490  0.01232225  0.27863103     0.14300
O169        O  0.82167119  0.55048302  0.31446054    -0.82200
C170        C  0.93131477  0.49089389  0.18799079     0.97100
O171        O  0.93746892  0.52299881  0.21049459    -0.71300
O172        O  0.86600603  0.57024894  0.20916971    -0.74900
Al173      Al  0.90215697  0.55008266  0.25309700     1.49000
C174        C  0.82596067  0.57071736  0.20996839     0.92400
O175        O  0.80431039  0.46752455  0.23380930    -0.81200
O176        O  0.85384422  0.42182550  0.28093368    -0.74700
Al177      Al  0.81622763  0.50868518  0.27432999     1.90100
O178        O  0.86722460  0.44892757  0.20931031    -0.73800
O179        O  0.91357364  0.47101542  0.31472333    -0.73600
O180        O  0.90390939  0.46299084  0.20005472    -0.79300
O181        O  0.93957291  0.53380791  0.29970979    -0.77500
O182        O  0.86914798  0.50749179  0.26270485    -1.13600
O183        O  0.87374998  0.58695785  0.28895115    -0.72800
C184        C  0.83931452  0.58521112  0.30786571     0.97900
C185        C  0.82686239  0.44710023  0.20848054     0.94300
Al186      Al  0.89554070  0.46217851  0.26056999     1.55600
O187        O  0.80556975  0.54840983  0.23479677    -0.77500
C188        C  0.93708754  0.50178675  0.32376776     0.98500
C189        C  0.82483723  0.43037064  0.30684009     0.93300
O190        O  0.81868454  0.46794337  0.31681880    -0.82800
O191        O  0.05320708  0.70301219  0.03618285    -0.82200
C192        C  0.00611851  0.56434475  0.44743202     0.97100
O193        O  0.03839599  0.58658312  0.45283125    -0.71300
O194        O  0.08243014  0.65701998  0.47165567    -0.74900
Al195      Al  0.05235346  0.61520274  0.50405344     1.49000
C196        C  0.07185258  0.69022798  0.45370307     0.92400
O197        O  0.95585305  0.70350356  0.47610857    -0.81200
O198        O  0.92687018  0.65488694  0.04215472    -0.74700
Al199      Al  0.00444318  0.69819103  0.50620192     1.90100
O200        O  0.93595981  0.63972160  0.46103380    -0.73800
O201        O  0.97022444  0.58352901  0.06054296    -0.73600
O202        O  0.97556822  0.56791588  0.47303286    -0.79300
O203        O  0.03319646  0.56611869  0.04114007    -0.77500
O204        O  0.00439700  0.64256240  0.50643173    -1.13600
O205        O  0.07130695  0.64019108  0.05529153    -0.72800
C206        C  0.07413728  0.67971569  0.05833603     0.97900
C207        C  0.93268988  0.67885441  0.45701463     0.94300
Al208      Al  0.95678074  0.61238703  0.00937951     1.55600
O209        O  0.03462564  0.70202414  0.45582597    -0.77500
C210        C  0.00212999  0.56121041  0.06567633     0.98500
C211        C  0.93830892  0.68922216  0.05837043     0.93300
O212        O  0.97548358  0.70101243  0.05485042    -0.82800
O213        O  0.04042370  0.27205191  0.46604342    -0.82200
C214        C  0.00003915  0.41029763  0.06613807     0.97100
O215        O  0.03504546  0.40258008  0.04763199    -0.71300
O216        O  0.07456714  0.32521479  0.04082968    -0.74900
Al217      Al  0.05344064  0.36716278  0.50047558     1.49000
C218        C  0.06229488  0.28994877  0.05578038     0.92400
O219        O  0.94457160  0.28625567  0.03670284    -0.81200
O220        O  0.94659730  0.35204587  0.44097167    -0.74700
Al221      Al  0.99315432  0.28207774  0.50082406     1.90100
O222        O  0.91374629  0.34173336  0.01057847    -0.73800
O223        O  0.97163910  0.38863311  0.43926492    -0.73600
O224        O  0.96566954  0.39557333  0.05247396    -0.79300
O225        O  0.03599118  0.40863975  0.45843856    -0.77500
O226        O  0.00163017  0.34010219  0.50082425    -1.13600
O227        O  0.07381761  0.33281478  0.45710934    -0.72800
C228        C  0.07025774  0.29370599  0.45097051     0.97900
C229        C  0.91192055  0.30625541  0.02737494     0.94300
Al230      Al  0.95933767  0.37854206  0.49582611     1.55600
O231        O  0.02655450  0.27442453  0.04938635    -0.77500
C232        C  0.00404055  0.41266989  0.43502447     0.98500
C233        C  0.94265149  0.31198741  0.43336829     0.93300
O234        O  0.96038936  0.28490987  0.45488342    -0.82800
O235        O  0.20334452  0.45040589  0.28259577    -0.82200
C236        C  0.06035694  0.48985843  0.19144734     0.97100
O237        O  0.08017797  0.45854637  0.20326662    -0.71300
O238        O  0.15388390  0.42512078  0.21145533    -0.74900
Al239      Al  0.11284758  0.44666600  0.25056674     1.49000
C240        C  0.18753667  0.43969120  0.19576157     0.92400
O241        O  0.19702925  0.55167473  0.22815795    -0.81200
O242        O  0.14285893  0.57489414  0.28683999    -0.74700
Al243      Al  0.19237884  0.50117664  0.25576671     1.90100
O244        O  0.13554272  0.56240120  0.20382181    -0.73800
O245        O  0.07396014  0.52924939  0.29952511    -0.73600
O246        O  0.06301243  0.52318188  0.21245828    -0.79300
O247        O  0.06987974  0.46106246  0.29214130    -0.77500
O248        O  0.13679757  0.49653975  0.25270244    -1.13600
O249        O  0.14237783  0.42310830  0.29523781    -0.72800
C250        C  0.18147242  0.42117244  0.29667072     0.97900
C251        C  0.17344502  0.57239540  0.20617412     0.94300
Al252      Al  0.10597633  0.54302519  0.25111387     1.55600
O253        O  0.20142348  0.47507992  0.20535981    -0.77500
C254        C  0.06158494  0.49422309  0.31268832     0.98500
C255        C  0.17498568  0.56625074  0.30731391     0.93300
O256        O  0.18867638  0.52932174  0.30696715    -0.82800
C257        C  0.99862240  0.44632246  0.09770227     0.86100
C258        C  0.03468996  0.45039478  0.12844667    -0.54200
C259        C  0.03371920  0.48592430  0.15294959     0.09000
C260        C  0.99714298  0.51546972  0.14114190     0.19900
C261        C  0.95890700  0.45088097  0.12530859    -0.54900
C262        C  0.95841667  0.48625860  0.14957107     0.09100
C263        C  0.00108070  0.48590182  0.07255628    -0.54400
C264        C  0.00022785  0.52245525  0.09295091     0.09700
H265        H  0.05707616  0.42562133  0.13248851     0.14200
H266        H  0.99651850  0.54496083  0.15908828    -0.00100
H267        H  0.93583624  0.42611616  0.12863509     0.14500
H268        H  0.00295690  0.48498597  0.03940267     0.14300
C269        C  0.00261512  0.45172603  0.40794410     0.86100
C270        C  0.96280295  0.46056798  0.38358888    -0.54200
C271        C  0.96375403  0.49733963  0.36129937     0.09000
C272        C  0.00395088  0.52334708  0.36911070     0.19900
C273        C  0.03772629  0.45528149  0.37545958    -0.54900
C274        C  0.03794277  0.49162916  0.35332673     0.09100
C275        C  0.00701275  0.48948959  0.43566113    -0.54400
C276        C  0.00723379  0.52724446  0.41770276     0.09700
H277        H  0.93837596  0.43749286  0.38045894     0.14200
H278        H  0.00465785  0.55369428  0.35288174    -0.00100
H279        H  0.05807144  0.42931266  0.36790064     0.14500
H280        H  0.00836527  0.48644339  0.46861926     0.14300
C281        C  0.24446566  0.21840363  0.09985928     0.01900
C282        C  0.21040295  0.24063094  0.11763191     0.01800
C283        C  0.21907947  0.28007066  0.13454026    -0.18700
C284        C  0.25908041  0.29764717  0.13485679     0.01900
C285        C  0.29279468  0.27414751  0.11952735     0.01800
C286        C  0.28400825  0.23742424  0.09845573    -0.18700
H287        H  0.31032231  0.21933426  0.08701291     0.03900
H288        H  0.19379468  0.29989569  0.14461622     0.03900
C289        C  0.23356738  0.36660277  0.11644276    -0.20700
C290        C  0.26006123  0.34347962  0.14169960    -0.07300
C291        C  0.27023964  0.36021037  0.18015399     0.13600
C292        C  0.24879507  0.39531821  0.19469874    -0.20800
C293        C  0.21575702  0.41200906  0.17298385    -0.07300
C294        C  0.20912239  0.39906450  0.13270380     0.13600
C295        C  0.17486826  0.41764187  0.10818578    -0.24100
H296        H  0.22629790  0.35425572  0.08643060     0.14800
H297        H  0.25475666  0.40698239  0.22540903     0.14900
C298        C  0.30077040  0.33949986  0.20739640    -0.24100
H299        H  0.17357956  0.40357240  0.07714722     0.05100
H300        H  0.18013616  0.45177336  0.10495852     0.08300
H301        H  0.14434799  0.41213926  0.12390693     0.08300
H302        H  0.28931062  0.30798632  0.21576554     0.08300
H303        H  0.30503719  0.35726381  0.23627932     0.08300
H304        H  0.33153611  0.33762408  0.19151109     0.05100
C305        C  0.09980224  0.26913048  0.11855875    -0.20700
C306        C  0.09239697  0.26332009  0.07709138    -0.07300
C307        C  0.11560349  0.23207820  0.05587088     0.13600
C308        C  0.15367848  0.21928534  0.07136390    -0.20800
C309        C  0.16532407  0.23150714  0.11053821    -0.07300
C310        C  0.13399779  0.24967838  0.13631977     0.13600
C311        C  0.13790057  0.25172854  0.18190268    -0.24100
H312        H  0.07939281  0.28887677  0.13688220     0.14800
H313        H  0.17477607  0.20179398  0.05176130     0.14900
C314        C  0.10079184  0.20994878  0.01839127    -0.24100
H315        H  0.11103772  0.23526059  0.19660566     0.05100
H316        H  0.13750043  0.28478599  0.19186267     0.08300
H317        H  0.16691065  0.23675937  0.19212289     0.08300
H318        H  0.07075300  0.22120738  0.50776618     0.08300
H319        H  0.10103668  0.17795055  0.52139177     0.08300
H320        H  0.12251623  0.21571673  0.99239701     0.05100
C321        C  0.40322772  0.24555899  0.13711890    -0.20700
C322        C  0.39619833  0.21652137  0.16868131    -0.07300
C323        C  0.35623510  0.21492185  0.18837624     0.13600
C324        C  0.32556823  0.24255902  0.17658273    -0.20800
C325        C  0.33119437  0.26855396  0.14260132    -0.07300
C326        C  0.37067568  0.27038746  0.12284268     0.13600
C327        C  0.37747789  0.29680092  0.08540216    -0.24100
H328        H  0.43381272  0.24772936  0.12265517     0.14800
H329        H  0.29461935  0.23954339  0.19028657     0.14900
C330        C  0.34457639  0.18438837  0.22186402    -0.24100
H331        H  0.41010035  0.29496594  0.07362323     0.05100
H332        H  0.37053170  0.32989284  0.09295127     0.08300
H333        H  0.35667393  0.28607051  0.06078409     0.08300
H334        H  0.36466595  0.18910524  0.24841974     0.08300
H335        H  0.34733649  0.15190072  0.21020966     0.08300
H336        H  0.31196905  0.18830327  0.23316720     0.05100
C337        C  0.27747357  0.10807475  0.10081632    -0.20700
C338        C  0.30204168  0.10991678  0.06474295    -0.07300
C339        C  0.29569147  0.14378875  0.03769486     0.13600
C340        C  0.26256229  0.17111249  0.04521881    -0.20800
C341        C  0.24478883  0.17459658  0.08451176    -0.07300
C342        C  0.25094110  0.14137156  0.11216328     0.13600
C343        C  0.23253580  0.14186531  0.15479757    -0.24100
H344        H  0.28130707  0.08223235  0.12163842     0.14800
H345        H  0.25846281  0.19702739  0.02448529     0.14900
C346        C  0.32594083  0.15512412  0.00348358    -0.24100
H347        H  0.21377836  0.11303704  0.15991796     0.05100
H348        H  0.21188149  0.16893348  0.16034048     0.08300
H349        H  0.25793556  0.14308884  0.17723334     0.08300
H350        H  0.32783575  0.13050247  0.98012540     0.08300
H351        H  0.35728172  0.16071475  0.01609958     0.08300
H352        H  0.31679156  0.18410457  0.98765921     0.05100
C353        C  0.74191766  0.38313408  0.16039668    -0.20700
C354        C  0.75822193  0.34309653  0.16528858    -0.07300
C355        C  0.79883231  0.33861330  0.18056151     0.13600
C356        C  0.82266817  0.37403750  0.18884450    -0.20800
C357        C  0.80607351  0.41409932  0.18516840    -0.07300
C358        C  0.76514552  0.41881703  0.17072570     0.13600
C359        C  0.74652948  0.46136620  0.16463926    -0.24100
H360        H  0.71180962  0.38650371  0.14656069     0.14800
H361        H  0.85330363  0.37007930  0.20151257     0.14900
C362        C  0.81802823  0.29649874  0.18774966    -0.24100
H363        H  0.71587817  0.45919794  0.14972601     0.05100
H364        H  0.76766156  0.48048555  0.14487545     0.08300
H365        H  0.74143739  0.47750669  0.19433704     0.08300
H366        H  0.84556366  0.29236336  0.16705568     0.08300
H367        H  0.79586705  0.27039396  0.18262345     0.08300
H368        H  0.82804866  0.29454034  0.21992281     0.05100
C369        C  0.69147842  0.24607941  0.20955354    -0.20700
C370        C  0.68246916  0.28232089  0.18730785    -0.07300
C371        C  0.64075699  0.29435570  0.18520115     0.13600
C372        C  0.60971222  0.26417651  0.19164481    -0.20800
C373        C  0.61975761  0.22308017  0.20297849    -0.07300
C374        C  0.66071929  0.21534244  0.21637117     0.13600
C375        C  0.67321768  0.17469594  0.23546808    -0.24100
H376        H  0.72385515  0.23809983  0.21387108     0.14800
H377        H  0.57778184  0.27245402  0.18569310     0.14900
C378        C  0.62978201  0.33705786  0.17018835    -0.24100
H379        H  0.70659417  0.17481345  0.24363109     0.05100
H380        H  0.66827127  0.14849208  0.21375130     0.08300
H381        H  0.65477314  0.16937104  0.26404229     0.08300
H382        H  0.64291128  0.34198394  0.13892763     0.08300
H383        H  0.64278719  0.36102003  0.19103952     0.08300
H384        H  0.59554311  0.34135289  0.16930156     0.05100
C385        C  0.86812404  0.25320532  0.06137786    -0.20700
C386        C  0.87087720  0.28663457  0.03408829    -0.07300
C387        C  0.83486669  0.29870126  0.01257663     0.13600
C388        C  0.79690277  0.27922140  0.02203607    -0.20800
C389        C  0.79339265  0.25222694  0.05529953    -0.07300
C390        C  0.82967347  0.23590784  0.07237905     0.13600
C391        C  0.82766804  0.20331439  0.10524382    -0.24100
H392        H  0.89572516  0.24230961  0.07628085     0.14800
H393        H  0.76863674  0.29087688  0.00876570     0.14900
C394        C  0.83467093  0.33348401  0.98165067    -0.24100
H395        H  0.85893764  0.19631048  0.11712930     0.05100
H396        H  0.81505202  0.17393522  0.09227804     0.08300
H397        H  0.80790287  0.21405137  0.13138166     0.08300
H398        H  0.85795476  0.33376282  0.45534481     0.08300
H399        H  0.84215902  0.36737190  0.49749853     0.08300
H400        H  0.80386210  0.33670592  0.96732205     0.05100
C401        C  0.67252092  0.15267641  0.03575091    -0.20700
C402        C  0.68729689  0.11815584  0.05706218    -0.07300
C403        C  0.71655843  0.12326568  0.08776428     0.13600
C404        C  0.73010279  0.16363280  0.09702353    -0.20800
C405        C  0.71687416  0.19803643  0.07435931    -0.07300
C406        C  0.68735147  0.19265229  0.04371949     0.13600
C407        C  0.67008474  0.22846829  0.01986431    -0.24100
H408        H  0.65018209  0.14829250  0.01174419     0.14800
H409        H  0.74928469  0.16859568  0.12337658     0.14900
C410        C  0.73173493  0.08660646  0.11171249    -0.24100
H411        H  0.67491517  0.22244916  0.98675333     0.05100
H412        H  0.68513464  0.25880432  0.02709647     0.08300
H413        H  0.63616285  0.23110618  0.02645994     0.08300
H414        H  0.74805235  0.06429357  0.09095196     0.08300
H415        H  0.70486653  0.07051369  0.12684403     0.08300
H416        H  0.75375359  0.09651463  0.13563191     0.05100
C417        C  0.65394691  0.73919226  0.13286324    -0.20700
C418        C  0.68610418  0.73508081  0.16136161    -0.07300
C419        C  0.67783992  0.74834747  0.20193502     0.13600
C420        C  0.64202971  0.77182640  0.21093912    -0.20800
C421        C  0.61337927  0.78186546  0.18087969    -0.07300
C422        C  0.61797495  0.76310449  0.14198161     0.13600
C423        C  0.58696797  0.77119747  0.10927960    -0.24100
H424        H  0.66000774  0.72940695  0.10153517     0.14800
H425        H  0.63744841  0.78427738  0.24142631     0.14900
C426        C  0.70961417  0.74306881  0.23464166    -0.24100
H427        H  0.59590155  0.75548002  0.08009256     0.05100
H428        H  0.58506441  0.80527494  0.10358624     0.08300
H429        H  0.55583965  0.75927092  0.11917193     0.08300
H430        H  0.73941587  0.75871506  0.22592977     0.08300
H431        H  0.71516497  0.70975346  0.24087378     0.08300
H432        H  0.69833521  0.75652603  0.26375064     0.05100
C433        C  0.74469766  0.65109278  0.17965284    -0.20700
C434        C  0.76457898  0.66906566  0.14586967    -0.07300
C435        C  0.79557972  0.64451773  0.12519981     0.13600
C436        C  0.81576533  0.61265828  0.14632033    -0.20800
C437        C  0.80099556  0.59996026  0.18477835    -0.07300
C438        C  0.76167398  0.61615734  0.19892503     0.13600
C439        C  0.73723633  0.59807433  0.23458328    -0.24100
H440        H  0.71664087  0.66495587  0.19185971     0.14800
H441        H  0.84282072  0.59765821  0.13259285     0.14900
C442        C  0.80883758  0.65252533  0.08144711    -0.24100
H443        H  0.70772310  0.61505876  0.24079766     0.05100
H444        H  0.75554095  0.59998616  0.26257080     0.08300
H445        H  0.72897465  0.56503512  0.22801531     0.08300
H446        H  0.84242298  0.66062673  0.07971973     0.08300
H447        H  0.79067788  0.67797105  0.06760728     0.08300
H448        H  0.80369540  0.62382867  0.06302462     0.05100
C449        C  0.76639518  0.87758191  0.10526678    -0.20700
C450        C  0.76182410  0.83725941  0.08867547    -0.07300
C451        C  0.73354747  0.83127290  0.05647524     0.13600
C452        C  0.71006632  0.86473059  0.04279215    -0.20800
C453        C  0.71276936  0.90461665  0.06055286    -0.07300
C454        C  0.74244777  0.91144606  0.09144218     0.13600
C455        C  0.74736211  0.95351356  0.11162814    -0.24100
H456        H  0.78636470  0.88185898  0.13119912     0.14800
H457        H  0.68832829  0.85898999  0.01859439     0.14900
C458        C  0.72426658  0.78866159  0.03860342    -0.24100
H459        H  0.76981717  0.95252967  0.13688920     0.05100
H460        H  0.71690645  0.96395438  0.12455087     0.08300
H461        H  0.75926402  0.97668014  0.08907084     0.08300
H462        H  0.69081420  0.78087027  0.04359428     0.08300
H463        H  0.74285849  0.76330388  0.05182364     0.08300
H464        H  0.73144761  0.78879745  0.00553387     0.05100
C465        C  0.87987700  0.73548456  0.04353904    -0.20700
C466        C  0.90728628  0.72064418  0.07261986    -0.07300
C467        C  0.90951398  0.74235881  0.11022851     0.13600
C468        C  0.88102351  0.77490267  0.11907664    -0.20800
C469        C  0.84734009  0.78246460  0.09306086    -0.07300
C470        C  0.85191224  0.76773001  0.05259610     0.13600
C471        C  0.82775388  0.78548384  0.01839436    -0.24100
H472        H  0.88131307  0.72294889  0.01290108     0.14800
H473        H  0.87946725  0.78753488  0.14982840     0.14900
C474        C  0.93917214  0.72886188  0.14224825    -0.24100
H475        H  0.84986134  0.79454531  0.99343450     0.05100
H476        H  0.81097911  0.81398015  0.02784923     0.08300
H477        H  0.80573697  0.76175786  0.00669703     0.08300
H478        H  0.97130912  0.73223345  0.13023012     0.08300
H479        H  0.93310038  0.69568140  0.15024516     0.08300
H480        H  0.93607009  0.74801953  0.17050636     0.05100
C481        C  0.23292977  0.61979700  0.19553587    -0.20700
C482        C  0.19007443  0.61235427  0.19081650    -0.07300
C483        C  0.16398137  0.64601050  0.18256135     0.13600
C484        C  0.18105872  0.68598918  0.18169639    -0.20800
C485        C  0.22422165  0.69457272  0.18706160    -0.07300
C486        C  0.25003623  0.66006782  0.19536816     0.13600
C487        C  0.29496901  0.66435393  0.20658704    -0.24100
H488        H  0.25320842  0.59382830  0.20202504     0.14800
H489        H  0.15903016  0.71027495  0.17636632     0.14900
C490        C  0.11776447  0.64095097  0.17585320    -0.24100
H491        H  0.30654005  0.63577015  0.22155159     0.05100
H492        H  0.29919295  0.69033293  0.22862391     0.08300
H493        H  0.31415061  0.66868693  0.17853510     0.08300
H494        H  0.10169316  0.63062541  0.20440274     0.08300
H495        H  0.11241360  0.61812401  0.15083459     0.08300
H496        H  0.10295068  0.67067906  0.16703224     0.05100
C497        C  0.35589204  0.73943060  0.15955429    -0.20700
C498        C  0.31919874  0.75440562  0.17895335    -0.07300
C499        C  0.32191193  0.79019284  0.20437482     0.13600
C500        C  0.35988491  0.81136441  0.20712894    -0.20800
C501        C  0.39535173  0.79818513  0.18520239    -0.07300
C502        C  0.39363745  0.76132798  0.16165878     0.13600
C503        C  0.43095649  0.74610013  0.13732046    -0.24100
H504        H  0.35379836  0.71318373  0.13862045     0.14800
H505        H  0.36205855  0.83836451  0.22715994     0.14900
C506        C  0.28481883  0.80827119  0.22677213    -0.24100
H507        H  0.42318779  0.71843284  0.11828965     0.05100
H508        H  0.45613456  0.73685968  0.15795716     0.08300
H509        H  0.44249593  0.77123261  0.11665930     0.08300
H510        H  0.27070932  0.78484517  0.24763272     0.08300
H511        H  0.26178951  0.81908018  0.20481703     0.08300
H512        H  0.29354077  0.83586454  0.24526614     0.05100
C513        C  0.13266418  0.76474736  0.11335370    -0.20700
C514        C  0.17366948  0.75177731  0.10648252    -0.07300
C515        C  0.18094620  0.71195934  0.08766172     0.13600
C516        C  0.14700436  0.68698755  0.07672129    -0.20800
C517        C  0.10627186  0.70068898  0.08245609    -0.07300
C518        C  0.09894651  0.73988347  0.10154313     0.13600
C519        C  0.05560537  0.75470651  0.11159632    -0.24100
H520        H  0.12706647  0.79413767  0.12910036     0.14800
H521        H  0.15234970  0.65739973  0.06120901     0.14900
C522        C  0.22374226  0.69425280  0.07917345    -0.24100
H523        H  0.05573700  0.78462523  0.12891554     0.05100
H524        H  0.03999000  0.73081731  0.13100752     0.08300
H525        H  0.03775624  0.75992788  0.08355509     0.08300
H526        H  0.23993560  0.68833218  0.10784230     0.08300
H527        H  0.24261545  0.71560848  0.05971767     0.08300
H528        H  0.22235130  0.66386021  0.06274193     0.05100
C529        C  0.28178309  0.81714877  0.05066211    -0.20700
C530        C  0.25321462  0.82158950  0.08317963    -0.07300
C531        C  0.24998966  0.86077282  0.10322222     0.13600
C532        C  0.27991693  0.89173982  0.09472285    -0.20800
C533        C  0.31279721  0.88477952  0.06653143    -0.07300
C534        C  0.31351510  0.84650922  0.04405819     0.13600
C535        C  0.34745367  0.83507089  0.01346710    -0.24100
H536        H  0.28340935  0.78727961  0.03500566     0.14800
H537        H  0.27747251  0.92160114  0.11013017     0.14900
C538        C  0.21538646  0.87041735  0.13359145    -0.24100
H539        H  0.34393137  0.80254387  0.00215925     0.05100
H540        H  0.37625548  0.83875105  0.52724221     0.08300
H541        H  0.34496708  0.85665139  0.48509662     0.08300
H542        H  0.21812017  0.85137233  0.16137982     0.08300
H543        H  0.18484740  0.86424706  0.11945872     0.08300
H544        H  0.21604088  0.90364404  0.14343769     0.05100
C545        C  0.35651274  0.72350034  0.31466826    -0.20700
C546        C  0.33682200  0.73937375  0.34975318    -0.07300
C547        C  0.35953329  0.76828382  0.37416153     0.13600
C548        C  0.39441022  0.78923640  0.35729693    -0.20800
C549        C  0.41080712  0.77750335  0.31914190    -0.07300
C550        C  0.39467926  0.74065454  0.30045307     0.13600
C551        C  0.41646072  0.71986296  0.26489249    -0.24100
H552        H  0.34056824  0.70014771  0.29662595     0.14800
H553        H  0.40817654  0.81522287  0.37357914     0.14900
C554        C  0.34433481  0.78109499  0.41614139    -0.24100
H555        H  0.40050941  0.69047974  0.25576791     0.05100
H556        H  0.44882991  0.71207807  0.27301712     0.08300
H557        H  0.41675666  0.74060119  0.23845712     0.08300
H558        H  0.31678785  0.76251696  0.42647639     0.08300
H559        H  0.33597662  0.81467978  0.41633458     0.08300
H560        H  0.36952818  0.77594709  0.43814458     0.05100
C561        C  0.25567258  0.63233036  0.36537890    -0.20700
C562        C  0.25359932  0.67058788  0.34447997    -0.07300
C563        C  0.22616417  0.67322370  0.31126832     0.13600
C564        C  0.20095333  0.63899789  0.30101069    -0.20800
C565        C  0.20156100  0.60136531  0.32282054    -0.07300
C566        C  0.23035609  0.59766074  0.35479741     0.13600
C567        C  0.23288698  0.55823270  0.37941270    -0.24100
H568        H  0.27494176  0.63061690  0.39203531     0.14800
H569        H  0.17999851  0.64205569  0.27574503     0.14900
C570        C  0.22062483  0.71350900  0.28854964    -0.24100
H571        H  0.25485485  0.56168537  0.40493474     0.05100
H572        H  0.24411316  0.53215401  0.35974744     0.08300
H573        H  0.20171123  0.55029676  0.39262992     0.08300
H574        H  0.25076229  0.72283568  0.27429599     0.08300
H575        H  0.20947424  0.73849396  0.30948103     0.08300
H576        H  0.19717186  0.71053301  0.26440039     0.05100
C577        C  0.22935609  0.85377530  0.42620453    -0.20700
C578        C  0.24237478  0.84222802  0.38672052    -0.07300
C579        C  0.26850818  0.87172011  0.36565216     0.13600
C580        C  0.29317939  0.89972728  0.38804070    -0.20800
C581        C  0.28569019  0.90554647  0.42984577    -0.07300
C582        C  0.24898792  0.88658863  0.44722433     0.13600
C583        C  0.22954698  0.90040640  0.48731253    -0.24100
H584        H  0.20465385  0.83661772  0.44155385     0.14800
H585        H  0.31695958  0.91834397  0.37246699     0.14900
C586        C  0.26992623  0.87502932  0.31986244    -0.24100
H587        H  0.20138450  0.88172577  0.49570814     0.05100
H588        H  0.21995031  0.93352875  0.48519065     0.08300
H589        H  0.25519334  0.89630375  0.01427294     0.08300
H590        H  0.24860707  0.85203996  0.30559795     0.08300
H591        H  0.30226578  0.87029207  0.30817164     0.08300
H592        H  0.25988400  0.90672118  0.31088935     0.05100
C593        C  0.14103185  0.76144773  0.38669779    -0.20700
C594        C  0.17475643  0.76807922  0.41297077    -0.07300
C595        C  0.17003371  0.75526439  0.45411111     0.13600
C596        C  0.13536999  0.73125941  0.46612441    -0.20800
C597        C  0.10471532  0.71953141  0.43846556    -0.07300
C598        C  0.10606633  0.73702565  0.39897782     0.13600
C599        C  0.07244859  0.72736140  0.36905114    -0.24100
H600        H  0.14456528  0.77048246  0.35496728     0.14800
H601        H  0.13347555  0.71962208  0.49709176     0.14900
C602        C  0.20434778  0.76060436  0.48432016    -0.24100
H603        H  0.07890332  0.74232065  0.33902696     0.05100
H604        H  0.04215512  0.73909415  0.38114019     0.08300
H605        H  0.07016266  0.69308429  0.36419272     0.08300
H606        H  0.19241234  0.77754069  0.51179924     0.08300
H607        H  0.23154064  0.77808084  0.47165415     0.08300
H608        H  0.21535571  0.72931697  0.49326622     0.05100
C609        C  0.23185154  0.31549253  0.28653057    -0.20700
C610        C  0.25316706  0.31177433  0.32311386    -0.07300
C611        C  0.25479545  0.34687284  0.34950005     0.13600
C612        C  0.23144803  0.38281067  0.34039705    -0.20800
C613        C  0.20308103  0.38232745  0.30824487    -0.07300
C614        C  0.20287255  0.34722844  0.28169202     0.13600
C615        C  0.17028836  0.33916486  0.25035680    -0.24100
H616        H  0.23054983  0.28861831  0.26627443     0.14800
H617        H  0.23359410  0.41034050  0.35961364     0.14900
C618        C  0.27964392  0.34573809  0.38785427    -0.24100
H619        H  0.15621428  0.30793636  0.25618657     0.05100
H620        H  0.18452595  0.33940207  0.21920361     0.08300
H621        H  0.14417593  0.36097678  0.25221016     0.08300
H622        H  0.31291921  0.34030777  0.37986592     0.08300
H623        H  0.26798258  0.32030671  0.40808039     0.08300
H624        H  0.27741041  0.37560132  0.40512608     0.05100
C625        C  0.34605805  0.27434325  0.31059812    -0.20700
C626        C  0.33329091  0.25864469  0.34876531    -0.07300
C627        C  0.36443307  0.24045638  0.37320572     0.13600
C628        C  0.39955729  0.22303048  0.35375753    -0.20800
C629        C  0.40816245  0.23190334  0.31277937    -0.07300
C630        C  0.38517916  0.26390035  0.29394290     0.13600
C631        C  0.40108783  0.28654457  0.25652370    -0.24100
H632        H  0.32494141  0.29191217  0.29222293     0.14800
H633        H  0.41983721  0.20258410  0.37034847     0.14900
C634        C  0.35951933  0.23643607  0.41886848    -0.24100
H635        H  0.37860470  0.31009239  0.24601740     0.05100
H636        H  0.40727733  0.26461121  0.23131197     0.08300
H637        H  0.43051958  0.30309386  0.26371521     0.08300
H638        H  0.35977482  0.20303228  0.42776238     0.08300
H639        H  0.33020733  0.25094966  0.43035419     0.08300
H640        H  0.38588145  0.25262978  0.43372112     0.05100
C641        C  0.09636481  0.23808587  0.40314679    -0.20700
C642        C  0.10474557  0.27163016  0.42981914    -0.07300
C643        C  0.14643145  0.28005233  0.44065568     0.13600
C644        C  0.17821413  0.25554389  0.42410477    -0.20800
C645        C  0.17044026  0.22433215  0.39499273    -0.07300
C646        C  0.12904355  0.21519486  0.38455046     0.13600
C647        C  0.11985466  0.18210441  0.35322147    -0.24100
H648        H  0.06438647  0.23071881  0.39589612     0.14800
H649        H  0.21025203  0.26315262  0.43117480     0.14900
C650        C  0.15818419  0.31390100  0.47061882    -0.24100
H651        H  0.08586664  0.17836953  0.34876444     0.05100
H652        H  0.13239317  0.15174758  0.36336349     0.08300
H653        H  0.13470551  0.19058699  0.32343206     0.08300
H654        H  0.14996580  0.34405538  0.95966472     0.08300
H655        H  0.19217170  0.31467719  0.47610524     0.08300
H656        H  0.14230124  0.30826408  0.50046826     0.05100
C657        C  0.26376303  0.11975253  0.36810759    -0.20700
C658        C  0.23875383  0.14697032  0.39226350    -0.07300
C659        C  0.22856776  0.13512848  0.43273318     0.13600
C660        C  0.24908375  0.10114572  0.44963747    -0.20800
C661        C  0.28162161  0.08090490  0.42820904    -0.07300
C662        C  0.28711471  0.08813639  0.38616731     0.13600
C663        C  0.31805615  0.06352825  0.36080028    -0.24100
H664        H  0.27043210  0.12775744  0.33650216     0.14800
H665        H  0.24305565  0.09362191  0.48146827     0.14900
C666        C  0.19887638  0.15956713  0.45948422    -0.24100
H667        H  0.31739454  0.07242532  0.32808567     0.05100
H668        H  0.31059184  0.02969646  0.36312713     0.08300
H669        H  0.35006364  0.06924393  0.37167085     0.08300
H670        H  0.21106370  0.19164130  0.46396219     0.08300
H671        H  0.16778902  0.15997851  0.44552158     0.08300
H672        H  0.19466821  0.14535319  0.49016790     0.05100
C673        C  0.65687757  0.20611776  0.36657132    -0.20700
C674        C  0.66728871  0.24869123  0.35953928    -0.07300
C675        C  0.63732542  0.27291766  0.33959417     0.13600
C676        C  0.60302746  0.25308299  0.32140522    -0.20800
C677        C  0.59553346  0.20955668  0.32454305    -0.07300
C678        C  0.62134270  0.18676690  0.35038203     0.13600
C679        C  0.61155106  0.14235565  0.36173191    -0.24100
H680        H  0.67710848  0.18680095  0.38408072     0.14800
H681        H  0.58219974  0.27229743  0.30408544     0.14900
C682        C  0.63890849  0.31983622  0.33886478    -0.24100
H683        H  0.63207498  0.13099671  0.38603455     0.05100
H684        H  0.61558891  0.12159713  0.33475268     0.08300
H685        H  0.57908862  0.14052204  0.37392245     0.08300
H686        H  0.64316988  0.33106088  0.30704611     0.08300
H687        H  0.66365309  0.33274265  0.35825940     0.08300
H688        H  0.60905885  0.33226746  0.35140883     0.05100
C689        C  0.75692082  0.35249596  0.36743692    -0.20700
C690        C  0.74110756  0.32845962  0.33486549    -0.07300
C691        C  0.74525075  0.34455468  0.29527647     0.13600
C692        C  0.77246239  0.37786282  0.28747519    -0.20800
C693        C  0.79352070  0.39805215  0.31890918    -0.07300
C694        C  0.78203298  0.38829655  0.35973758     0.13600
C695        C  0.79715740  0.41445648  0.39474458    -0.24100
H696        H  0.75299704  0.34120079  0.39841511     0.14800
H697        H  0.77706951  0.38813017  0.25658254     0.14900
C698        C  0.72386798  0.32427873  0.26043130    -0.24100
H699        H  0.78605174  0.40192383  0.42460916     0.05100
H700        H  0.78516100  0.44669686  0.39193167     0.08300
H701        H  0.83155009  0.41579818  0.39449969     0.08300
H702        H  0.70716581  0.34815108  0.24275444     0.08300
H703        H  0.70074975  0.30072464  0.27118415     0.08300
H704        H  0.74735941  0.30839202  0.24086657     0.05100
C705        C  0.75102013  0.15142850  0.37153712    -0.20700
C706        C  0.76708166  0.17846861  0.40172454    -0.07300
C707        C  0.76466909  0.16522579  0.44258010     0.13600
C708        C  0.73935156  0.13113140  0.45344014    -0.20800
C709        C  0.71790658  0.10797502  0.42412042    -0.07300
C710        C  0.72725406  0.11552599  0.38243592     0.13600
C711        C  0.71154011  0.08656990  0.34985358    -0.24100
H712        H  0.75351312  0.16052459  0.33972859     0.14800
H713        H  0.73591721  0.12301589  0.48541081     0.14900
C714        C  0.78581151  0.18885180  0.47569020    -0.24100
H715        H  0.72026331  0.09785631  0.31878199     0.05100
H716        H  0.67724273  0.08353232  0.35209427     0.08300
H717        H  0.72524950  0.05518762  0.35387905     0.08300
H718        H  0.80585735  0.21442995  0.46345004     0.08300
H719        H  0.80569848  0.16749366  0.49321918     0.08300
H720        H  0.76143652  0.20206551  0.49612132     0.05100
C721        C  0.85059570  0.29842084  0.36246262    -0.20700
C722        C  0.83921004  0.25600029  0.36984356    -0.07300
C723        C  0.86915597  0.23091582  0.38848465     0.13600
C724        C  0.90432094  0.24979520  0.40582677    -0.20800
C725        C  0.91230491  0.29343689  0.40368077    -0.07300
C726        C  0.88680101  0.31698680  0.37843028     0.13600
C727        C  0.89710223  0.36167568  0.36881510    -0.24100
H728        H  0.83051804  0.31819006  0.34546029     0.14800
H729        H  0.92502420  0.22973646  0.42229833     0.14900
C730        C  0.86621352  0.18405095  0.38912278    -0.24100
H731        H  0.87618255  0.37437568  0.34565675     0.05100
H732        H  0.92944611  0.36398416  0.35630958     0.08300
H733        H  0.89383056  0.38098663  0.39682562     0.08300
H734        H  0.84141270  0.17201006  0.36923980     0.08300
H735        H  0.86095067  0.17301796  0.42090054     0.08300
H736        H  0.89581942  0.17067947  0.37699378    -0.06100
C737        C  0.79411603  0.69328735  0.29324985    -0.20700
C738        C  0.76097009  0.69272987  0.32170224    -0.07300
C739        C  0.74992404  0.65409860  0.34019181     0.13600
C740        C  0.77822516  0.62114334  0.33806073    -0.20800
C741        C  0.81545482  0.62412786  0.31495982    -0.07300
C742        C  0.82281457  0.66072563  0.29110998     0.13600
C743        C  0.86089573  0.66717136  0.26392105    -0.24100
H744        H  0.80082036  0.72208320  0.27695720     0.14800
H745        H  0.77031182  0.59214920  0.35342826     0.14900
C746        C  0.70757050  0.64579987  0.35956270    -0.24100
H747        H  0.86163814  0.69859005  0.24968263     0.05100
H748        H  0.86126860  0.64431193  0.23855795     0.08300
H749        H  0.88948712  0.66439210  0.28207700     0.08300
H750        H  0.68303236  0.65557867  0.33836679     0.08300
H751        H  0.70342079  0.66202023  0.38917941     0.08300
H752        H  0.70265267  0.61203590  0.36576733     0.05100
C753        C  0.64892175  0.82198400  0.31768161    -0.20700
C754        C  0.60934295  0.80406074  0.32183397    -0.07300
C755        C  0.60435217  0.76519912  0.34180729     0.13600
C756        C  0.63959919  0.74438156  0.35539312    -0.20800
C757        C  0.67968852  0.76050647  0.34800347    -0.07300
C758        C  0.68438357  0.80046484  0.32931817     0.13600
C759        C  0.72611832  0.82047339  0.31926658    -0.24100
H760        H  0.65245678  0.85140981  0.30176312     0.14800
H761        H  0.63598479  0.71488755  0.37114846     0.14900
C762        C  0.56202204  0.74556024  0.34906527    -0.24100
H763        H  0.72281453  0.85161832  0.30500640     0.05100
H764        H  0.74419367  0.80096527  0.29730923     0.08300
H765        H  0.74427568  0.82521211  0.34697705     0.08300
H766        H  0.54825861  0.73571650  0.31977858     0.08300
H767        H  0.54112028  0.76820822  0.36487741     0.08300
H768        H  0.56380269  0.71728745  0.36842251     0.05100
C769        C  0.85783123  0.68099632  0.44582428    -0.20700
C770        C  0.89725912  0.69736244  0.43624782    -0.07300
C771        C  0.90069740  0.73655207  0.41677888     0.13600
C772        C  0.86452756  0.75880774  0.40852685    -0.20800
C773        C  0.82473253  0.74333447  0.41937548    -0.07300
C774        C  0.82160877  0.70352385  0.43841794     0.13600
C775        C  0.78074006  0.68350915  0.45061512    -0.24100
H776        H  0.85548556  0.65142678  0.46173490     0.14800
H777        H  0.86726166  0.78791927  0.39200316     0.14900
C778        C  0.94234906  0.75446243  0.40332907    -0.24100
H779        H  0.78495172  0.65364464  0.46706005     0.05100
H780        H  0.76328112  0.67605437  0.42291566     0.08300
H781        H  0.76255723  0.70434974  0.47129549     0.08300
H782        H  0.95932999  0.73128564  0.38404863     0.08300
H783        H  0.96126792  0.76288385  0.43006705     0.08300
H784        H  0.93882635  0.78329555  0.38506789     0.05100
C785        C  0.68996850  0.82042047  0.42943278    -0.20700
C786        C  0.73376559  0.81462960  0.42593195    -0.07300
C787        C  0.75880152  0.85154163  0.42287208     0.13600
C788        C  0.73954114  0.89080114  0.42318446    -0.20800
C789        C  0.69604974  0.89510030  0.42524191    -0.07300
C790        C  0.67103594  0.85896425  0.42559279     0.13600
C791        C  0.62408371  0.85984464  0.42331940    -0.24100
H792        H  0.66882339  0.79482005  0.43440646     0.14800
H793        H  0.75881610  0.91874724  0.42286830     0.14900
C794        C  0.80555367  0.85121170  0.41919866    -0.24100
H795        H  0.61058569  0.82819419  0.41862012     0.05100
H796        H  0.61474195  0.87909338  0.39698913     0.08300
H797        H  0.61495669  0.86765117  0.96416937     0.08300
H798        H  0.81531263  0.83884412  0.38884884     0.08300
H799        H  0.81853029  0.83256979  0.44409292     0.08300
H800        H  0.81925338  0.88305668  0.42154823     0.05100
C801        C  0.79068408  0.76179164  0.89803845     0.01900
C802        C  0.75195634  0.76776139  0.91850782     0.01800
C803        C  0.72040826  0.74130757  0.90386998    -0.18700
C804        C  0.71751020  0.73822669  0.86165494     0.01900
C805        C  0.75486501  0.73356580  0.83962581     0.01800
C806        C  0.79009675  0.75341628  0.85603150    -0.18700
H807        H  0.81997712  0.75009542  0.84033456     0.03900
H808        H  0.69223521  0.73555495  0.92162616     0.03900
C809        C  0.79767176  0.23624440  0.86227094     0.01900
C810        C  0.77154154  0.22110795  0.89457763     0.01800
C811        C  0.73268509  0.24037744  0.90165121    -0.18700
C812        C  0.71316856  0.26106315  0.86975731     0.01900
C813        C  0.73977710  0.27677155  0.83845445     0.01800
C814        C  0.77774576  0.25633971  0.83035038    -0.18700
H815        H  0.79731885  0.26766446  0.80524591     0.03900
H816        H  0.71290083  0.22854369  0.92622221     0.03900
C817        C  0.20649601  0.21394190  0.87080751     0.01900
C818        C  0.24077819  0.18996926  0.88232804     0.01800
C819        C  0.28090657  0.20597374  0.87491339    -0.18700
C820        C  0.28884640  0.24523097  0.85726429     0.01900
C821        C  0.25398667  0.26690113  0.84210027     0.01800
C822        C  0.21416961  0.24856931  0.84609119    -0.18700
H823        H  0.18735967  0.26646433  0.83686662     0.03900
H824        H  0.30664105  0.18589909  0.88183474     0.03900
C825        C  0.24337716  0.79321629  0.87591410     0.01900
C826        C  0.22092031  0.76072836  0.89703745     0.01800
C827        C  0.23442365  0.71911253  0.89340693    -0.18700
C828        C  0.26706606  0.70727325  0.86724542     0.01900
C829        C  0.29187436  0.73950087  0.85011200     0.01800
C830        C  0.27609330  0.78008258  0.84967117    -0.18700
H831        H  0.29636489  0.80266797  0.83504933     0.03900
H832        H  0.21484174  0.69442729  0.90634985     0.03900
C833        C  0.24378355  0.78370795  0.60470745     0.01900
C834        C  0.20679561  0.77643873  0.62634412     0.01800
C835        C  0.21065552  0.76797402  0.66797792    -0.18700
C836        C  0.24167917  0.73922109  0.67804287     0.01900
C837        C  0.28024899  0.74496975  0.65645663     0.01800
C838        C  0.27980327  0.76473365  0.61848383    -0.18700
H839        H  0.30923627  0.77228709  0.60330707     0.03900
H840        H  0.18299827  0.77009437  0.68730075     0.03900
C841        C  0.76685017  0.79908831  0.60950049     0.01900
C842        C  0.80359296  0.77488567  0.61098178     0.01800
C843        C  0.80065601  0.73536418  0.62924840    -0.18700
C844        C  0.76270455  0.71620043  0.63996291     0.01900
C845        C  0.72724774  0.74249505  0.64272693     0.01800
C846        C  0.73112501  0.78391022  0.62950686    -0.18700
H847        H  0.70393998  0.80393752  0.63134808     0.03900
H848        H  0.82877776  0.71727147  0.63191995     0.03900
C849        C  0.72281720  0.24288946  0.58319826     0.01900
C850        C  0.76105604  0.26333459  0.57847523     0.01800
C851        C  0.76961959  0.29778045  0.60272734    -0.18700
C852        C  0.74490158  0.30692753  0.63681048     0.01900
C853        C  0.70685301  0.28533072  0.64245899     0.01800
C854        C  0.69420147  0.25737700  0.61211657    -0.18700
H855        H  0.66513694  0.24018545  0.61630484     0.03900
H856        H  0.79829964  0.31528020  0.59720787     0.03900
O857        O  0.47897013  0.78999581  0.78777237    -0.82200
C858        C  0.50609412  0.93114725  0.68233108     0.97100
O859        O  0.47654610  0.92760138  0.70923730    -0.71300
O860        O  0.43789150  0.85590517  0.70084249    -0.74900
Al861      Al  0.46024026  0.88172260  0.74751502     1.49000
C862        C  0.43578534  0.81701924  0.69518204     0.92400
O863        O  0.54231822  0.79898449  0.68987886    -0.81200
O864        O  0.57491677  0.86040488  0.78869743    -0.74700
Al865      Al  0.51060762  0.79942288  0.73944957     1.90100
O866        O  0.58820704  0.84486975  0.70856617    -0.73800
O867        O  0.53619302  0.93204770  0.77398621    -0.73600
O868        O  0.53966867  0.91139537  0.68813756    -0.79300
O869        O  0.47605046  0.91112250  0.79802557    -0.77500
O870        O  0.50843527  0.85510291  0.74242666    -1.13600
O871        O  0.43299718  0.83977604  0.78238156    -0.72800
C872        C  0.44341167  0.80425607  0.79577817     0.97900
C873        C  0.57952807  0.81095604  0.69061031     0.94300
Al874      Al  0.55542218  0.88504015  0.73966681     1.55600
O875        O  0.46311085  0.79305959  0.70819268    -0.77500
C876        C  0.50756308  0.93467195  0.80145651     0.98500
C877        C  0.57857320  0.82125091  0.79326445     0.93300
O878        O  0.55818278  0.79565137  0.77201648    -0.82800
O879        O  0.69765043  0.97648713  0.53998672    -0.82200
C880        C  0.56860634  0.00617979  0.92992741     0.97100
O881        O  0.56879605  0.97495825  0.95401295    -0.71300
O882        O  0.64181842  0.93869437  0.94222788    -0.74900
Al883      Al  0.61271678  0.95915915  0.48894074     1.49000
C884        C  0.68043517  0.93172151  0.94222142     0.92400
O885        O  0.70223684  0.03519016  0.94207972    -0.81200
O886        O  0.63495608  0.07117164  0.53929357    -0.74700
Al887      Al  0.69722888  0.00545281  0.99190675     1.90100
O888        O  0.65611819  0.08285700  0.95854970    -0.73800
O889        O  0.56480250  0.03441464  0.52562033    -0.73600
O890        O  0.58822691  0.03878291  0.94004957    -0.79300
O891        O  0.58418044  0.97121638  0.53995876    -0.77500
O892        O  0.64163104  0.00475040  0.99108180    -1.13600
O893        O  0.65243109  0.92920780  0.52110063    -0.72800
C894        C  0.68498727  0.93909941  0.54032030     0.97900
C895        C  0.68978813  0.07224313  0.94013069     0.94300
Al896      Al  0.61211643  0.05421136  0.49002362     1.55600
O897        O  0.70456784  0.95572029  0.96124795    -0.77500
C898        C  0.56446038  0.00368776  0.55039055     0.98500
C899        C  0.67304228  0.07936493  0.54136481     0.93300
O900        O  0.70000651  0.05751057  0.52282331    -0.82800
O901        O  0.29993760  0.95224154  0.98371829    -0.82200
C902        C  0.44091053  0.00166393  0.55180815     0.97100
O903        O  0.43230133  0.96703531  0.53354806    -0.71300
O904        O  0.36503753  0.91722020  0.52691387    -0.74900
Al905      Al  0.39600079  0.95066706  0.99055150     1.49000
C906        C  0.33621313  0.92213028  0.55257617     0.92400
O907        O  0.31685382  0.03780299  0.56018829    -0.81200
O908        O  0.35233455  0.05999573  0.95051083    -0.74700
Al909      Al  0.31537218  0.99503768  0.02020538     1.90100
O910        O  0.35612351  0.08167588  0.52796692    -0.73800
O911        O  0.43023860  0.03445785  0.94838850    -0.73600
O912        O  0.42852048  0.03656979  0.53688923    -0.79300
O913        O  0.43303895  0.96777159  0.94546195    -0.77500
O914        O  0.36769768  0.99768328  0.00052711    -1.13600
O915        O  0.35620158  0.93235417  0.94920485    -0.72800
C916        C  0.31661760  0.93113971  0.95532438     0.97900
C917        C  0.32611388  0.07478014  0.55194015     0.94300
Al918      Al  0.39199387  0.04704373  0.99238800     1.55600
O919        O  0.32448560  0.95832446  0.56119599    -0.77500
C920        C  0.44305091  0.00239193  0.93033024     0.98500
C921        C  0.31283653  0.05489576  0.95364302     0.93300
O922        O  0.29625449  0.03234784  0.98110782    -0.82800
O923        O  0.46826179  0.21168251  0.68747696    -0.82200
C924        C  0.50666845  0.08534163  0.80858897     0.97100
O925        O  0.47335986  0.08839654  0.78762037    -0.71300
O926        O  0.43471187  0.16522212  0.78711644    -0.74900
Al927      Al  0.45204893  0.12519816  0.74486750     1.49000
C928        C  0.43974269  0.20512535  0.78915239     0.92400
O929        O  0.54809209  0.21298790  0.77236392    -0.81200
O930        O  0.59115063  0.15451868  0.72079813    -0.74700
Al931      Al  0.50886165  0.21086159  0.72940281     1.90100
O932        O  0.56278999  0.14712016  0.79138979    -0.73800
O933        O  0.53536356  0.09656142  0.68542458    -0.73600
O934        O  0.53957759  0.10710724  0.79878765    -0.79300
O935        O  0.46755091  0.08551154  0.69983852    -0.77500
O936        O  0.50243639  0.15353350  0.73762479    -1.13600
O937        O  0.42601870  0.15902628  0.70595624    -0.72800
C938        C  0.43299074  0.19306014  0.68718053     0.97900
C939        C  0.56697368  0.18748595  0.79540728     0.94300
Al940      Al  0.54752938  0.11774674  0.74009344     1.55600
O941        O  0.46687399  0.22468889  0.76790276    -0.77500
C942        C  0.50028050  0.07946130  0.67665539     0.98500
C943        C  0.58744374  0.18872939  0.70168406     0.93300
O944        O  0.55188480  0.20033479  0.69003460    -0.82800
C945        C  0.50392434  0.96548175  0.64807802     0.86100
C946        C  0.46656928  0.96642229  0.61788284    -0.54200
C947        C  0.46600806  0.00074588  0.59155970     0.09000
C948        C  0.50184788  0.03235067  0.60093302     0.19900
C949        C  0.54205917  0.97056727  0.61818188    -0.54900
C950        C  0.54020763  0.00402774  0.59135230     0.09100
C951        C  0.50146129  0.00597337  0.67105725    -0.54400
C952        C  0.50047628  0.04114601  0.64914772     0.09700
H953        H  0.44514731  0.94027044  0.61493760     0.14200
H954        H  0.50130613  0.06093639  0.58193208    -0.00100
H955        H  0.56542273  0.94642938  0.61488396     0.14500
H956        H  0.50137843  0.00684503  0.70435656     0.14300
C957        C  0.50804380  0.04800020  0.83836950     0.86100
C958        C  0.47017569  0.04271824  0.86836283    -0.54200
C959        C  0.46980958  0.00649152  0.89133766     0.09000
C960        C  0.50697525  0.97742551  0.87943193     0.19900
C961        C  0.54569662  0.04246087  0.86621443    -0.54900
C962        C  0.54450761  0.00686999  0.89017919     0.09100
C963        C  0.50796421  0.00934184  0.81167645    -0.54400
C964        C  0.50724210  0.97218805  0.83065583     0.09700
H965        H  0.44777532  0.06748804  0.87360092     0.14200
H966        H  0.50680381  0.94751091  0.89640195    -0.00100
H967        H  0.56840814  0.06701579  0.87040395     0.14500
H968        H  0.50836852  0.01138408  0.77848856     0.14300
O969        O  0.81810081  0.54853022  0.81221324    -0.82200
C970        C  0.93342267  0.49180723  0.68714017     0.97100
O971        O  0.93859470  0.52428894  0.70976275    -0.71300
O972        O  0.86673281  0.57247795  0.71198820    -0.74900
Al973      Al  0.90514097  0.55127895  0.75379116     1.49000
C974        C  0.82648993  0.57065155  0.71090525     0.92400
O975        O  0.80522892  0.46412087  0.73178507    -0.81200
O976        O  0.85635715  0.41854694  0.78106035    -0.74700
Al977      Al  0.81283023  0.50563543  0.77267775     1.90100
O978        O  0.86913962  0.44491092  0.70834242    -0.73800
O979        O  0.92026295  0.46587537  0.81119538    -0.73600
O980        O  0.90797608  0.46216544  0.69889001    -0.79300
O981        O  0.94221261  0.53164831  0.79911106    -0.77500
O982        O  0.87017824  0.50501173  0.76278975    -1.13600
O983        O  0.87533508  0.58371788  0.79264307    -0.72800
C984        C  0.83911610  0.58234669  0.80882209     0.97900
C985        C  0.82879322  0.44374583  0.70701544     0.94300
Al986      Al  0.89914458  0.45604831  0.75838786     1.55600
O987        O  0.80522604  0.54572912  0.73281659    -0.77500
C988        C  0.94082483  0.49842111  0.82190016     0.98500
C989        C  0.82538222  0.42680449  0.80504347     0.93300
O990        O  0.81618195  0.46422040  0.81414548    -0.82800
O991        O  0.05259463  0.70483960  0.53646808    -0.82200
C992        C  0.00708497  0.56190523  0.94838812     0.97100
O993        O  0.03979261  0.58320370  0.95496083    -0.71300
O994        O  0.08412470  0.65338041  0.97388604    -0.74900
Al995      Al  0.05284956  0.61262204  0.00613741     1.49000
C996        C  0.07441144  0.68620124  0.95489827     0.92400
O997        O  0.95763939  0.70112442  0.97422121    -0.81200
O998        O  0.92633961  0.65618945  0.54249613    -0.74700
Al999      Al  0.00569369  0.69591460  0.00513454     1.90100
O1000       O  0.93665837  0.63736754  0.96085310    -0.73800
O1001       O  0.97108040  0.58526156  0.56018712    -0.73600
O1002       O  0.97596359  0.56593623  0.97327702    -0.79300
O1003       O  0.03362061  0.56801627  0.53897937    -0.77500
O1004       O  0.00501322  0.64030879  0.00683555    -1.13600
O1005       O  0.07178126  0.64156651  0.55305106    -0.72800
C1006       C  0.07429426  0.68090833  0.55726540     0.97900
C1007       C  0.93388896  0.67636687  0.95600510     0.94300
Al1008     Al  0.95649940  0.61422887  0.50931920     1.55600
O1009       O  0.03711291  0.69797273  0.95527441    -0.77500
C1010       C  0.00323383  0.56299081  0.56442292     0.98500
C1011       C  0.93763038  0.69026615  0.55928710     0.93300
O1012       O  0.97501586  0.70157443  0.55664599    -0.82800
O1013       O  0.04088006  0.27067316  0.96850948    -0.82200
C1014       C  0.00116061  0.41183869  0.56515596     0.97100
O1015       O  0.03593607  0.40394907  0.54632583    -0.71300
O1016       O  0.07451845  0.32616679  0.53938278    -0.74900
Al1017     Al  0.05311551  0.36592361  0.00189554     1.49000
C1018       C  0.06192418  0.29091208  0.55414414     0.92400
O1019       O  0.94466396  0.28809108  0.53472975    -0.81200
O1020       O  0.94675413  0.34950317  0.94202562    -0.74700
Al1021     Al  0.99338956  0.28053377  0.00301429     1.90100
O1022       O  0.91409558  0.34395700  0.50921246    -0.73800
O1023       O  0.97178418  0.38685141  0.93992874    -0.73600
O1024       O  0.96662704  0.39694112  0.55199543    -0.79300
O1025       O  0.03576744  0.40704586  0.95964517    -0.77500
O1026       O  0.00142593  0.33855419  0.00225869    -1.13600
O1027       O  0.07374193  0.33160519  0.95867653    -0.72800
C1028       C  0.07047975  0.29239514  0.95307865     0.97900
C1029       C  0.91211398  0.30801628  0.52499489     0.94300
Al1030     Al  0.95876495  0.37645092  0.99649351     1.55600
O1031       O  0.02639623  0.27526841  0.54700743    -0.77500
C1032       C  0.00424123  0.41074963  0.93570778     0.98500
C1033       C  0.94328571  0.30939442  0.93490836     0.93300
O1034       O  0.96089734  0.28272863  0.95699185    -0.82800
O1035       O  0.20477103  0.44779004  0.78014518    -0.82200
C1036       C  0.06166771  0.49038579  0.69113093     0.97100
O1037       O  0.08089821  0.45858201  0.70280211    -0.71300
O1038       O  0.15443671  0.42403689  0.71015447    -0.74900
Al1039     Al  0.11383069  0.44562413  0.74977586     1.49000
C1040       C  0.18791501  0.43852770  0.69401028     0.92400
O1041       O  0.19915194  0.55051103  0.72781325    -0.81200
O1042       O  0.14521397  0.57235613  0.78818957    -0.74700
Al1043     Al  0.19409747  0.49928018  0.75425819     1.90100
O1044       O  0.13740022  0.56274502  0.70507354    -0.73800
O1045       O  0.07567418  0.52754735  0.80013774    -0.73600
O1046       O  0.06479350  0.52347096  0.71251075    -0.79300
O1047       O  0.07115264  0.45959285  0.79197017    -0.77500
O1048       O  0.13831365  0.49531991  0.75222216    -1.13600
O1049       O  0.14359586  0.42143864  0.79403090    -0.72800
C1050       C  0.18270203  0.41909690  0.79506705     0.97900
C1051       C  0.17536233  0.57252300  0.70733624     0.94300
Al1052     Al  0.10786967  0.54207598  0.75184871     1.55600
O1053       O  0.20167106  0.47410745  0.70310716    -0.77500
C1054       C  0.06309960  0.49247042  0.81301371     0.98500
C1055       C  0.17807054  0.56340320  0.80742483     0.93300
O1056       O  0.19189908  0.52652435  0.80594166    -0.82800
C1057       C  0.00020065  0.44804268  0.59660180     0.86100
C1058       C  0.03608667  0.45176075  0.62759034    -0.54200
C1059       C  0.03528398  0.48721565  0.65224780     0.09000
C1060       C  0.99897408  0.51715961  0.64018363     0.19900
C1061       C  0.96043328  0.45293239  0.62393803    -0.54900
C1062       C  0.96008418  0.48818665  0.64836295     0.09100
C1063       C  0.00318013  0.48762957  0.57151235    -0.54400
C1064       C  0.00225139  0.52421606  0.59188608     0.09700
H1065       H  0.05817595  0.42673321  0.63173022     0.14200
H1066       H  0.99833002  0.54660485  0.65819981    -0.00100
H1067       H  0.93730606  0.42822747  0.62720264     0.14500
H1068       H  0.00507393  0.48667127  0.53833815     0.14300
C1069       C  0.00331823  0.44958854  0.90822548     0.86100
C1070       C  0.96385305  0.45848781  0.88344689    -0.54200
C1071       C  0.96539287  0.49510402  0.86089707     0.09000
C1072       C  0.00533696  0.52124875  0.86948753     0.19900
C1073       C  0.03881840  0.45312697  0.87590980    -0.54900
C1074       C  0.03939325  0.48959873  0.85379677     0.09100
C1075       C  0.00748970  0.48726951  0.93603179    -0.54400
C1076       C  0.00810644  0.52503064  0.91823324     0.09700
H1077       H  0.93963313  0.43528425  0.87980254     0.14200
H1078       H  0.00616212  0.55167796  0.85339923    -0.00100
H1079       H  0.05901043  0.42704863  0.86833161     0.14500
H1080       H  0.00846510  0.48417182  0.96899000     0.14300
C1081       C  0.24113789  0.21513794  0.60382138     0.01900
C1082       C  0.20754037  0.23850391  0.62091580     0.01800
C1083       C  0.21726195  0.27746135  0.63833890    -0.18700
C1084       C  0.25770224  0.29415718  0.63832898     0.01900
C1085       C  0.29090003  0.26959229  0.62365312     0.01800
C1086       C  0.28148427  0.23215961  0.60413918    -0.18700
H1087       H  0.30734947  0.21287929  0.59370866     0.03900
H1088       H  0.19244905  0.29800227  0.64818721     0.03900
C1089       C  0.23381078  0.36275369  0.61711599    -0.20700
C1090       C  0.25971236  0.34017316  0.64338469    -0.07300
C1091       C  0.27016856  0.35824556  0.68115370     0.13600
C1092       C  0.24922812  0.39420325  0.69434565    -0.20800
C1093       C  0.21635543  0.41039592  0.67197018    -0.07300
C1094       C  0.20974581  0.39608574  0.63211553     0.13600
C1095       C  0.17588023  0.41413665  0.60674170    -0.24100
H1096       H  0.22651061  0.34941204  0.58757392     0.14800
H1097       H  0.25528039  0.40685046  0.72454337     0.14900
C1098       C  0.30044148  0.33814787  0.70910625    -0.24100
H1099       H  0.17460404  0.39896975  0.57619965     0.05100
H1100       H  0.18160479  0.44806132  0.60234984     0.08300
H1101       H  0.14520763  0.40955645  0.62245704     0.08300
H1102       H  0.28887153  0.30685969  0.71813375     0.08300
H1103       H  0.30463097  0.35664094  0.73755002     0.08300
H1104       H  0.33125871  0.33572333  0.69339425     0.05100
C1105       C  0.09739351  0.26992382  0.61802720    -0.20700
C1106       C  0.09140583  0.26435800  0.57625381    -0.07300
C1107       C  0.11502137  0.23308695  0.55561317     0.13600
C1108       C  0.15200897  0.21941138  0.57253887    -0.20800
C1109       C  0.16248475  0.23120648  0.61217120    -0.07300
C1110       C  0.13076155  0.25014217  0.63691555     0.13600
C1111       C  0.13304181  0.25213729  0.68265475    -0.24100
H1112       H  0.07653828  0.28975315  0.63571580     0.14800
H1113       H  0.17336146  0.20173284  0.55341696     0.14900
C1114       C  0.10215192  0.21226637  0.51673408    -0.24100
H1115       H  0.10546266  0.23602702  0.69641675     0.05100
H1116       H  0.13269994  0.28521351  0.69263259     0.08300
H1117       H  0.16140746  0.23674261  0.69390485     0.08300
H1118       H  0.06880288  0.21836803  0.01081477     0.08300
H1119       H  0.10019962  0.17581133  0.02416747     0.08300
H1120       H  0.12527666  0.21878814  0.49207997     0.05100
C1121       C  0.40245908  0.24365984  0.63830089    -0.20700
C1122       C  0.39667899  0.21493220  0.67035199    -0.07300
C1123       C  0.35724730  0.21309675  0.69113653     0.13600
C1124       C  0.32606409  0.24047954  0.68019807    -0.20800
C1125       C  0.33019512  0.26564063  0.64553120    -0.07300
C1126       C  0.36902669  0.26768854  0.62455376     0.13600
C1127       C  0.37424300  0.29366068  0.58663019    -0.24100
H1128       H  0.43257527  0.24604608  0.62301098     0.14800
H1129       H  0.29563019  0.23749887  0.69497524     0.14900
C1130       C  0.34648800  0.18238685  0.72475179    -0.24100
H1131       H  0.40652692  0.29214805  0.57390472     0.05100
H1132       H  0.36703292  0.32674393  0.59398269     0.08300
H1133       H  0.35278928  0.28227533  0.56283042     0.08300
H1134       H  0.36710117  0.18705481  0.75085897     0.08300
H1135       H  0.34910596  0.14995231  0.71292066     0.08300
H1136       H  0.31412654  0.18608529  0.73681810     0.05100
C1137       C  0.27245434  0.10556772  0.59999270    -0.20700
C1138       C  0.29763111  0.10933311  0.56444820    -0.07300
C1139       C  0.29072766  0.14375922  0.53819596     0.13600
C1140       C  0.25743496  0.17061389  0.54671500    -0.20800
C1141       C  0.23970083  0.17240556  0.58614085    -0.07300
C1142       C  0.24512972  0.13781001  0.61213738     0.13600
C1143       C  0.22490880  0.13586115  0.65394113    -0.24100
H1144       H  0.27623310  0.07887013  0.61984470     0.14800
H1145       H  0.25323055  0.19739442  0.52700520     0.14900
C1146       C  0.32046697  0.15601917  0.50385587    -0.24100
H1147       H  0.20613137  0.10672702  0.65672149     0.05100
H1148       H  0.20387630  0.16258836  0.65990610     0.08300
H1149       H  0.24924780  0.13592727  0.67749322     0.08300
H1150       H  0.32278303  0.13156533  0.48035391     0.08300
H1151       H  0.35178098  0.16215387  0.51630286     0.08300
H1152       H  0.31059160  0.18489164  0.48823137     0.05100
C1153       C  0.74428518  0.37957359  0.65935784    -0.20700
C1154       C  0.76164968  0.33986707  0.66291554    -0.07300
C1155       C  0.80277888  0.33584235  0.67695525     0.13600
C1156       C  0.82614214  0.37152053  0.68508112    -0.20800
C1157       C  0.80844549  0.41123259  0.68295443    -0.07300
C1158       C  0.76701617  0.41547038  0.66964368     0.13600
C1159       C  0.74719512  0.45767705  0.66471892    -0.24100
H1160       H  0.71369151  0.38258305  0.64636525     0.14800
H1161       H  0.85722094  0.36787719  0.69674178     0.14900
C1162       C  0.82305245  0.29400284  0.68280947    -0.24100
H1163       H  0.71654617  0.45506744  0.64984454     0.05100
H1164       H  0.76768151  0.47788579  0.64537151     0.08300
H1165       H  0.74161773  0.47289771  0.69479193     0.08300
H1166       H  0.85020404  0.29089334  0.66145128     0.08300
H1167       H  0.80131536  0.26754433  0.67757349     0.08300
H1168       H  0.83389778  0.29159969  0.71467470     0.05100
C1169       C  0.69564053  0.23929217  0.69904130    -0.20700
C1170       C  0.68543796  0.27805355  0.68183270    -0.07300
C1171       C  0.64392554  0.29104104  0.68449832     0.13600
C1172       C  0.61279177  0.26131991  0.69246831    -0.20800
C1173       C  0.62259643  0.21910729  0.69923607    -0.07300
C1174       C  0.66470651  0.20870887  0.70606933     0.13600
C1175       C  0.67784336  0.16535226  0.71775833    -0.24100
H1176       H  0.72808284  0.23007757  0.69885896     0.14800
H1177       H  0.58064176  0.27095592  0.69113896     0.14900
C1178       C  0.63251862  0.33488454  0.67329634    -0.24100
H1179       H  0.71218812  0.16296699  0.72001468     0.05100
H1180       H  0.66769371  0.14246723  0.69434174     0.08300
H1181       H  0.66405140  0.15709800  0.74807606     0.08300
H1182       H  0.64239552  0.34150466  0.64126504     0.08300
H1183       H  0.64829848  0.35720739  0.69398803     0.08300
H1184       H  0.59842932  0.33998767  0.67619999     0.05100
C1185       C  0.86853456  0.25195535  0.55395429    -0.20700
C1186       C  0.87120343  0.28765874  0.52959801    -0.07300
C1187       C  0.83523801  0.30128971  0.50891196     0.13600
C1188       C  0.79725840  0.28131800  0.51716383    -0.20800
C1189       C  0.79378202  0.25252740  0.54897623    -0.07300
C1190       C  0.83007492  0.23440129  0.56425552     0.13600
C1191       C  0.82823238  0.19983228  0.59506116    -0.24100
H1192       H  0.89618098  0.23961675  0.56771568     0.14800
H1193       H  0.76897967  0.29402271  0.50482011     0.14900
C1194       C  0.83500927  0.33822499  0.48048592    -0.24100
H1195       H  0.85972330  0.19066866  0.60487621     0.05100
H1196       H  0.81367420  0.17186642  0.58112037     0.08300
H1197       H  0.81049347  0.21001367  0.62275100     0.08300
H1198       H  0.85757874  0.32710631  0.95687662     0.08300
H1199       H  0.84195765  0.36376471  0.99659429     0.08300
H1200       H  0.80420465  0.34234300  0.46641727     0.05100
C1201       C  0.66839067  0.15408370  0.53379322    -0.20700
C1202       C  0.68494993  0.12049716  0.55528396    -0.07300
C1203       C  0.71605841  0.12703329  0.58389509     0.13600
C1204       C  0.72936580  0.16784020  0.59107897    -0.20800
C1205       C  0.71482074  0.20115914  0.56771389    -0.07300
C1206       C  0.68363684  0.19436000  0.53902480     0.13600
C1207       C  0.66513719  0.22899792  0.51449412    -0.24100
H1208       H  0.64458555  0.14866929  0.51135433     0.14800
H1209       H  0.74937831  0.17400908  0.61653153     0.14900
C1210       C  0.73366402  0.09148190  0.60778814    -0.24100
H1211       H  0.66736534  0.22096601  0.48154929     0.05100
H1212       H  0.68123905  0.25937693  0.51895927     0.08300
H1213       H  0.63178468  0.23260195  0.52328373     0.08300
H1214       H  0.74915001  0.06889827  0.58670301     0.08300
H1215       H  0.70820681  0.07530657  0.62505110     0.08300
H1216       H  0.75705279  0.10261015  0.62990214     0.05100
C1217       C  0.65203200  0.73294177  0.63562504    -0.20700
C1218       C  0.68609897  0.73382096  0.66217076    -0.07300
C1219       C  0.68008918  0.75225074  0.70106260     0.13600
C1220       C  0.64470799  0.77638040  0.70898468    -0.20800
C1221       C  0.61379240  0.78145123  0.67991531    -0.07300
C1222       C  0.61595521  0.75694906  0.64393592     0.13600
C1223       C  0.58214253  0.75874958  0.61300083    -0.24100
H1224       H  0.65631172  0.71890349  0.60563147     0.14800
H1225       H  0.64244316  0.79334961  0.73759818     0.14900
C1226       C  0.71417245  0.75375162  0.73178653    -0.24100
H1227       H  0.58951325  0.73899709  0.58584560     0.05100
H1228       H  0.57829425  0.79141340  0.60261284     0.08300
H1229       H  0.55236195  0.74733269  0.62685713     0.08300
H1230       H  0.72402867  0.78670364  0.73595044     0.08300
H1231       H  0.74200901  0.73576321  0.72211517     0.08300
H1232       H  0.70241691  0.74072229  0.76118440     0.05100
C1233       C  0.74743576  0.65408136  0.68463690    -0.20700
C1234       C  0.76540306  0.67032043  0.64892499    -0.07300
C1235       C  0.79519622  0.64507363  0.62737519     0.13600
C1236       C  0.81545732  0.61292965  0.64791244    -0.20800
C1237       C  0.80168266  0.60067738  0.68676891    -0.07300
C1238       C  0.76352979  0.61799788  0.70247866     0.13600
C1239       C  0.73922171  0.59945922  0.73795249    -0.24100
H1240       H  0.72199641  0.67011667  0.69966183     0.14800
H1241       H  0.84158473  0.59718244  0.63335944     0.14900
C1242       C  0.80729159  0.65254931  0.58322958    -0.24100
H1243       H  0.71105241  0.61786454  0.74613460     0.05100
H1244       H  0.75856218  0.59829427  0.76512411     0.08300
H1245       H  0.72877195  0.56738974  0.72993146     0.08300
H1246       H  0.84091503  0.66032972  0.58058308     0.08300
H1247       H  0.78900415  0.67798959  0.56955707     0.08300
H1248       H  0.80136502  0.62372792  0.56523145     0.05100
C1249       C  0.76633163  0.87606559  0.59867370    -0.20700
C1250       C  0.75847373  0.83574263  0.58346785    -0.07300
C1251       C  0.72833793  0.83067076  0.55276527     0.13600
C1252       C  0.70562423  0.86496121  0.53995953    -0.20800
C1253       C  0.71129243  0.90498269  0.55678198    -0.07300
C1254       C  0.74345385  0.91090844  0.58540923     0.13600
C1255       C  0.75259900  0.95320542  0.60355573    -0.24100
H1256       H  0.78823506  0.87979665  0.62317097     0.14800
H1257       H  0.68231464  0.85979004  0.51697700     0.14900
C1258       C  0.71630118  0.78833384  0.53584794    -0.24100
H1259       H  0.77704081  0.95161298  0.62693712     0.05100
H1260       H  0.72400123  0.96600156  0.61842855     0.08300
H1261       H  0.76400526  0.97479109  0.57930700     0.08300
H1262       H  0.68315050  0.78152829  0.54374275     0.08300
H1263       H  0.73538035  0.76252679  0.54753460     0.08300
H1264       H  0.72036838  0.78820983  0.50230717     0.05100
C1265       C  0.87736484  0.73371870  0.54334085    -0.20700
C1266       C  0.90626860  0.72197127  0.57237259    -0.07300
C1267       C  0.90875178  0.74629327  0.60845618     0.13600
C1268       C  0.87899725  0.77796210  0.61623743    -0.20800
C1269       C  0.84467190  0.78286802  0.59042401    -0.07300
C1270       C  0.84882261  0.76575887  0.55094557     0.13600
C1271       C  0.82240869  0.77967955  0.51676306    -0.24100
H1272       H  0.87780315  0.71867479  0.51392794     0.14800
H1273       H  0.87760828  0.79243977  0.64623264     0.14900
C1274       C  0.94024436  0.73669086  0.64012867    -0.24100
H1275       H  0.84310127  0.78692691  0.49022910     0.05100
H1276       H  0.80549055  0.80857765  0.52442890     0.08300
H1277       H  0.80028191  0.75456309  0.50851888     0.08300
H1278       H  0.97171561  0.74195334  0.62699976     0.08300
H1279       H  0.93687812  0.70365650  0.64987421     0.08300
H1280       H  0.93656070  0.75703561  0.66752493     0.05100
C1281       C  0.23454937  0.62131203  0.69921390    -0.20700
C1282       C  0.19190894  0.61316679  0.69336541    -0.07300
C1283       C  0.16570342  0.64638061  0.68383382     0.13600
C1284       C  0.18258811  0.68636082  0.68149289    -0.20800
C1285       C  0.22556500  0.69550357  0.68711891    -0.07300
C1286       C  0.25141225  0.66172048  0.69750194     0.13600
C1287       C  0.29608064  0.66712159  0.70924687    -0.24100
H1288       H  0.25488730  0.59593799  0.70721811     0.14800
H1289       H  0.16056825  0.71014137  0.67486579     0.14900
C1290       C  0.11951241  0.64096476  0.67716438    -0.24100
H1291       H  0.30775765  0.63936649  0.72552268     0.05100
H1292       H  0.29952405  0.69412005  0.73026422     0.08300
H1293       H  0.31567730  0.67058809  0.68134014     0.08300
H1294       H  0.10351013  0.63114998  0.70594076     0.08300
H1295       H  0.11426982  0.61760637  0.65259421     0.08300
H1296       H  0.10452736  0.67038930  0.66772577     0.05100
C1297       C  0.35650394  0.73965888  0.65720576    -0.20700
C1298       C  0.31998473  0.75505568  0.67654237    -0.07300
C1299       C  0.32291532  0.79083530  0.70190931     0.13600
C1300       C  0.36093259  0.81186594  0.70442491    -0.20800
C1301       C  0.39645919  0.79800520  0.68302312    -0.07300
C1302       C  0.39464629  0.76074091  0.66001907     0.13600
C1303       C  0.43239965  0.74384852  0.63748006    -0.24100
H1304       H  0.35418277  0.71323067  0.63652735     0.14800
H1305       H  0.36314919  0.83909067  0.72414924     0.14900
C1306       C  0.28598122  0.80881218  0.72472448    -0.24100
H1307       H  0.42452172  0.71606653  0.61865541     0.05100
H1308       H  0.45627822  0.73412300  0.65935534     0.08300
H1309       H  0.44570287  0.76816668  0.61685939     0.08300
H1310       H  0.27171880  0.78492230  0.74509069     0.08300
H1311       H  0.26301393  0.82028198  0.70295251     0.08300
H1312       H  0.29490112  0.83587999  0.74392792     0.05100
C1313       C  0.13248966  0.76379153  0.61481354    -0.20700
C1314       C  0.17358495  0.75216562  0.60598456    -0.07300
C1315       C  0.18123447  0.71328505  0.58547211     0.13600
C1316       C  0.14752078  0.68843349  0.57380027    -0.20800
C1317       C  0.10670344  0.70100241  0.58144534    -0.07300
C1318       C  0.09902888  0.73862474  0.60306732     0.13600
C1319       C  0.05561838  0.75147770  0.61536383    -0.24100
H1320       H  0.12667712  0.79222830  0.63206330     0.14800
H1321       H  0.15300532  0.65990285  0.55659445     0.14900
C1322       C  0.22416719  0.69624810  0.57630244    -0.24100
H1323       H  0.05553450  0.77983073  0.63504668     0.05100
H1324       H  0.04067039  0.72570028  0.63297832     0.08300
H1325       H  0.03716065  0.75865193  0.58813764     0.08300
H1326       H  0.24050918  0.69005171  0.60491275     0.08300
H1327       H  0.24256485  0.71812308  0.55693422     0.08300
H1328       H  0.22301172  0.66610467  0.55942353     0.05100
C1329       C  0.27960420  0.81819695  0.54868933    -0.20700
C1330       C  0.25129894  0.82233234  0.58142220    -0.07300
C1331       C  0.24750655  0.86153633  0.60129431     0.13600
C1332       C  0.27708781  0.89273655  0.59275578    -0.20800
C1333       C  0.31018371  0.88587666  0.56482285    -0.07300
C1334       C  0.31123123  0.84767519  0.54230502     0.13600
C1335       C  0.34566577  0.83628521  0.51228574    -0.24100
H1336       H  0.28145568  0.78830514  0.53302062     0.14800
H1337       H  0.27437245  0.92264208  0.60819250     0.14900
C1338       C  0.21296107  0.87076012  0.63185867    -0.24100
H1339       H  0.34251700  0.80363028  0.50129311     0.05100
H1340       H  0.37828488  0.83725361  0.02799071     0.08300
H1341       H  0.34650076  0.85561912  0.98643839     0.08300
H1342       H  0.21643480  0.85210208  0.65983405     0.08300
H1343       H  0.18241976  0.86378551  0.61806436     0.08300
H1344       H  0.21299699  0.90410647  0.64135414     0.05100
C1345       C  0.35813625  0.72275555  0.81311931    -0.20700
C1346       C  0.33837236  0.73886058  0.84805840    -0.07300
C1347       C  0.36064956  0.76848592  0.87205507     0.13600
C1348       C  0.39546342  0.78932315  0.85503206    -0.20800
C1349       C  0.41212111  0.77706187  0.81715985    -0.07300
C1350       C  0.39612079  0.74006309  0.79867198     0.13600
C1351       C  0.41775654  0.71934553  0.76297921    -0.24100
H1352       H  0.34241239  0.69901033  0.79543209     0.14800
H1353       H  0.40902319  0.81561847  0.87098401     0.14900
C1354       C  0.34539454  0.78182333  0.91390470    -0.24100
H1355       H  0.40188754  0.68988389  0.75396628     0.05100
H1356       H  0.45023385  0.71173949  0.77086829     0.08300
H1357       H  0.41771689  0.74009427  0.73654396     0.08300
H1358       H  0.31804810  0.76317043  0.92459877     0.08300
H1359       H  0.33681079  0.81532980  0.91366627     0.08300
H1360       H  0.37062514  0.77728742  0.93599974     0.05100
C1361       C  0.26096932  0.62946989  0.86279352    -0.20700
C1362       C  0.25579305  0.66857771  0.84415315    -0.07300
C1363       C  0.22619221  0.67167788  0.81284637     0.13600
C1364       C  0.20131326  0.63713580  0.80295968    -0.20800
C1365       C  0.20488081  0.59850818  0.82270046    -0.07300
C1366       C  0.23661272  0.59421299  0.85185934     0.13600
C1367       C  0.24393491  0.55325191  0.87277360    -0.24100
H1368       H  0.28246899  0.62716618  0.88765584     0.14800
H1369       H  0.17845065  0.64068060  0.77942961     0.14900
C1370       C  0.21826065  0.71245780  0.79165248    -0.24100
H1371       H  0.26814773  0.55614733  0.89631466     0.05100
H1372       H  0.25481030  0.52962752  0.85011362     0.08300
H1373       H  0.21468266  0.54221778  0.88800356     0.08300
H1374       H  0.24744939  0.72368858  0.77669586     0.08300
H1375       H  0.20678618  0.73617227  0.81380478     0.08300
H1376       H  0.19429669  0.70925552  0.76794879     0.05100
C1377       C  0.23361511  0.84952543  0.92958589    -0.20700
C1378       C  0.24520487  0.83873844  0.88945400    -0.07300
C1379       C  0.27006118  0.86894060  0.86781596     0.13600
C1380       C  0.29497402  0.89727076  0.88964385    -0.20800
C1381       C  0.28838721  0.90307669  0.93159223    -0.07300
C1382       C  0.25257136  0.88328776  0.94980197     0.13600
C1383       C  0.23289614  0.89774823  0.98954590    -0.24100
H1384       H  0.21018885  0.83139531  0.94586718     0.14800
H1385       H  0.31784715  0.91645268  0.87350523     0.14900
C1386       C  0.26924517  0.87332986  0.82210866    -0.24100
H1387       H  0.20546334  0.87834986  0.99872187     0.05100
H1388       H  0.22214514  0.93039945  0.98636717     0.08300
H1389       H  0.25166947  0.89709734  0.51209000     0.08300
H1390       H  0.24754260  0.85046031  0.80819911     0.08300
H1391       H  0.30107168  0.86930457  0.80882464     0.08300
H1392       H  0.25835944  0.90508705  0.81438375     0.05100
C1393       C  0.14479863  0.75871147  0.89039296    -0.20700
C1394       C  0.17881605  0.76350921  0.91658051    -0.07300
C1395       C  0.17428146  0.74880321  0.95708102     0.13600
C1396       C  0.13944052  0.72464037  0.96827840    -0.20800
C1397       C  0.10811006  0.71507334  0.94053733    -0.07300
C1398       C  0.10950134  0.73440929  0.90188801     0.13600
C1399       C  0.07558543  0.72673003  0.87178330    -0.24100
H1400       H  0.14816407  0.76931639  0.85911615     0.14800
H1401       H  0.13775510  0.71144857  0.99858312     0.14900
C1402       C  0.20889385  0.75257913  0.98710359    -0.24100
H1403       H  0.08221778  0.74282973  0.84236768     0.05100
H1404       H  0.04556168  0.73856429  0.88443770     0.08300
H1405       H  0.07264100  0.69273175  0.86554056     0.08300
H1406       H  0.19717151  0.76793733  0.01553163     0.08300
H1407       H  0.23575103  0.77103339  0.97508859     0.08300
H1408       H  0.22021901  0.72085234  0.99407966     0.05100
C1409       C  0.23312422  0.31309366  0.78816257    -0.20700
C1410       C  0.25328804  0.30995300  0.82544220    -0.07300
C1411       C  0.25292192  0.34497049  0.85203412     0.13600
C1412       C  0.23020916  0.38089639  0.84153842    -0.20800
C1413       C  0.20394825  0.38041648  0.80772601    -0.07300
C1414       C  0.20477063  0.34504225  0.78156250     0.13600
C1415       C  0.17351196  0.33689700  0.74897958    -0.24100
H1416       H  0.23244204  0.28586896  0.76822918     0.14800
H1417       H  0.23098568  0.40836992  0.86098662     0.14900
C1418       C  0.27444115  0.34343060  0.89232411    -0.24100
H1419       H  0.15842264  0.30619512  0.75507246     0.05100
H1420       H  0.18905872  0.33576641  0.71845703     0.08300
H1421       H  0.14806491  0.35952837  0.74901871     0.08300
H1422       H  0.30814323  0.33761876  0.88700291     0.08300
H1423       H  0.26092037  0.31799592  0.91144004     0.08300
H1424       H  0.27100691  0.37320914  0.90956432     0.05100
C1425       C  0.34637192  0.27143328  0.81068734    -0.20700
C1426       C  0.33388752  0.25582380  0.84900204    -0.07300
C1427       C  0.36530389  0.23790460  0.87336109     0.13600
C1428       C  0.40095613  0.22142654  0.85402134    -0.20800
C1429       C  0.40980182  0.23073642  0.81320830    -0.07300
C1430       C  0.38596361  0.26202397  0.79424516     0.13600
C1431       C  0.40170160  0.28525713  0.75712695    -0.24100
H1432       H  0.32484564  0.28852495  0.79229394     0.14800
H1433       H  0.42149903  0.20129313  0.87060907     0.14900
C1434       C  0.36043497  0.23325365  0.91895467    -0.24100
H1435       H  0.37856316  0.30797040  0.74627983     0.05100
H1436       H  0.40924366  0.26366403  0.73197276     0.08300
H1437       H  0.43038139  0.30282756  0.76488947     0.08300
H1438       H  0.36131390  0.19973230  0.92732039     0.08300
H1439       H  0.33091143  0.24713251  0.93068602     0.08300
H1440       H  0.38652894  0.24966666  0.93402453     0.05100
C1441       C  0.09679202  0.23635898  0.90604591    -0.20700
C1442       C  0.10506548  0.27026146  0.93229172    -0.07300
C1443       C  0.14664917  0.27866982  0.94345640     0.13600
C1444       C  0.17841983  0.25357850  0.92780620    -0.20800
C1445       C  0.17084450  0.22228992  0.89871799    -0.07300
C1446       C  0.12952516  0.21313080  0.88803941     0.13600
C1447       C  0.12048996  0.17965825  0.85706402    -0.24100
H1448       H  0.06483104  0.22896095  0.89864864     0.14800
H1449       H  0.21042833  0.26107780  0.93517811     0.14900
C1450       C  0.15831492  0.31334445  0.97254081    -0.24100
H1451       H  0.08653439  0.17600985  0.85233229     0.05100
H1452       H  0.13277179  0.14939469  0.86774598     0.08300
H1453       H  0.13566583  0.18765052  0.82729773     0.08300
H1454       H  0.14979916  0.34498034  0.45863120     0.08300
H1455       H  0.19228768  0.31429703  0.97810882     0.08300
H1456       H  0.14235319  0.30856614  0.00248051     0.05100
C1457       C  0.26374573  0.11814076  0.87002987    -0.20700
C1458       C  0.23909981  0.14527507  0.89462891    -0.07300
C1459       C  0.23012616  0.13360927  0.93538893     0.13600
C1460       C  0.25158868  0.10007041  0.95194510    -0.20800
C1461       C  0.28394348  0.08021392  0.92987083    -0.07300
C1462       C  0.28862954  0.08759124  0.88779272     0.13600
C1463       C  0.32061907  0.06467664  0.86213835    -0.24100
H1464       H  0.26948701  0.12605908  0.83819822     0.14800
H1465       H  0.24630527  0.09251472  0.98389960     0.14900
C1466       C  0.20058075  0.15766684  0.96263383    -0.24100
H1467       H  0.31923525  0.07354201  0.82944882     0.05100
H1468       H  0.31505211  0.03050428  0.86447073     0.08300
H1469       H  0.35236530  0.07218848  0.87278213     0.08300
H1470       H  0.21232219  0.18993870  0.96674575     0.08300
H1471       H  0.16919232  0.15755637  0.94928340     0.08300
H1472       H  0.19723684  0.14350843  0.99342654     0.05100
C1473       C  0.65847196  0.20358310  0.86696318    -0.20700
C1474       C  0.66990038  0.24569591  0.85894676    -0.07300
C1475       C  0.64132832  0.26988435  0.83715870     0.13600
C1476       C  0.60726878  0.25024189  0.81855172    -0.20800
C1477       C  0.59856579  0.20706093  0.82299859    -0.07300
C1478       C  0.62312357  0.18445342  0.85016471     0.13600
C1479       C  0.61228538  0.14045177  0.86217100    -0.24100
H1480       H  0.67789691  0.18440195  0.88548259     0.14800
H1481       H  0.58760433  0.26935128  0.79992581     0.14900
C1482       C  0.64424708  0.31667964  0.83459317    -0.24100
H1483       H  0.63213346  0.12914926  0.88705425     0.05100
H1484       H  0.61653391  0.11915526  0.83562754     0.08300
H1485       H  0.57954511  0.13933227  0.87369168     0.08300
H1486       H  0.65116121  0.32634570  0.80265558     0.08300
H1487       H  0.66775163  0.32978386  0.85530736     0.08300
H1488       H  0.61400650  0.33040651  0.84449544     0.05100
C1489       C  0.75835801  0.34788534  0.86463743    -0.20700
C1490       C  0.74459472  0.32254360  0.83209081    -0.07300
C1491       C  0.75044615  0.33705550  0.79209509     0.13600
C1492       C  0.77686775  0.37107745  0.78454368    -0.20800
C1493       C  0.79545457  0.39314316  0.81641820    -0.07300
C1494       C  0.78288179  0.38398616  0.85702464     0.13600
C1495       C  0.79658508  0.41098782  0.89204381    -0.24100
H1496       H  0.75331125  0.33743743  0.89577781     0.14800
H1497       H  0.78266521  0.38046904  0.75376343     0.14900
C1498       C  0.73117746  0.31483742  0.75692083    -0.24100
H1499       H  0.78529544  0.39847128  0.92187271     0.05100
H1500       H  0.78383400  0.44285885  0.88863033     0.08300
H1501       H  0.83095614  0.41318184  0.89243736     0.08300
H1502       H  0.71408731  0.33763497  0.73834643     0.08300
H1503       H  0.70864308  0.29046549  0.76722289     0.08300
H1504       H  0.75577145  0.29948717  0.73826506     0.05100
C1505       C  0.75290216  0.14854420  0.87327953    -0.20700
C1506       C  0.76842152  0.17557864  0.90374456    -0.07300
C1507       C  0.76522426  0.16268616  0.94468058     0.13600
C1508       C  0.74024067  0.12820383  0.95500133    -0.20800
C1509       C  0.71940329  0.10492579  0.92526921    -0.07300
C1510       C  0.72896740  0.11272901  0.88372898     0.13600
C1511       C  0.71308148  0.08426964  0.85080753    -0.24100
H1512       H  0.75588270  0.15767181  0.84147746     0.14800
H1513       H  0.73652037  0.11993550  0.98687521     0.14900
C1514       C  0.78547291  0.18683162  0.97822924    -0.24100
H1515       H  0.72212559  0.09571301  0.81986799     0.05100
H1516       H  0.67872840  0.08176468  0.85285553     0.08300
H1517       H  0.72632138  0.05265384  0.85462987     0.08300
H1518       H  0.80562052  0.21244609  0.96621994     0.08300
H1519       H  0.80516699  0.16575781  0.99628053     0.08300
H1520       H  0.76091476  0.20027148  0.99835995     0.05100
C1521       C  0.85236573  0.29417216  0.86328219    -0.20700
C1522       C  0.84132045  0.25181796  0.87124110    -0.07300
C1523       C  0.87114441  0.22722233  0.89058734     0.13600
C1524       C  0.90607632  0.24660539  0.90769239    -0.20800
C1525       C  0.91362592  0.29028116  0.90506833    -0.07300
C1526       C  0.88810262  0.31336249  0.87941881     0.13600
C1527       C  0.89780211  0.35817208  0.86960924    -0.24100
H1528       H  0.83220265  0.31346556  0.84570774     0.14800
H1529       H  0.92684502  0.22691163  0.92462080     0.14900
C1530       C  0.86812661  0.18039459  0.89253384    -0.24100
H1531       H  0.87697673  0.37033967  0.84606100     0.05100
H1532       H  0.93025198  0.36092777  0.85748724     0.08300
H1533       H  0.89382727  0.37772124  0.89740394     0.08300
H1534       H  0.84342478  0.16776418  0.87288222     0.08300
H1535       H  0.86261845  0.17034178  0.92460146     0.08300
H1536       H  0.89778596  0.16663860  0.88098398    -0.06100
C1537       C  0.79919674  0.69190380  0.79366599    -0.20700
C1538       C  0.76458976  0.69243097  0.82033342    -0.07300
C1539       C  0.75188445  0.65429933  0.83897087     0.13600
C1540       C  0.77930124  0.62059602  0.83839734    -0.20800
C1541       C  0.81739860  0.62228717  0.81667458    -0.07300
C1542       C  0.82729403  0.65887015  0.79361588     0.13600
C1543       C  0.86747560  0.66491031  0.76945980    -0.24100
H1544       H  0.80727779  0.72023952  0.77716491     0.14800
H1545       H  0.76980932  0.59184299  0.85339048     0.14900
C1546       C  0.70852211  0.64701544  0.85629861    -0.24100
H1547       H  0.87042747  0.69683767  0.75655845     0.05100
H1548       H  0.86891235  0.64317106  0.74322789     0.08300
H1549       H  0.89444998  0.66040326  0.78952259     0.08300
H1550       H  0.68530109  0.65841348  0.83446239     0.08300
H1551       H  0.70403918  0.66228862  0.88637148     0.08300
H1552       H  0.70205711  0.61325343  0.86110217     0.05100
C1553       C  0.65092148  0.82231195  0.81461565    -0.20700
C1554       C  0.61143260  0.80402730  0.81850532    -0.07300
C1555       C  0.60672277  0.76494412  0.83808964     0.13600
C1556       C  0.64214247  0.74400535  0.85099025    -0.20800
C1557       C  0.68210924  0.76061738  0.84399037    -0.07300
C1558       C  0.68650461  0.80095680  0.82628068     0.13600
C1559       C  0.72807984  0.82221166  0.81895757    -0.24100
H1560       H  0.65427113  0.85207143  0.79935906     0.14800
H1561       H  0.63871087  0.71432035  0.86633493     0.14900
C1562       C  0.56447480  0.74533886  0.84600706    -0.24100
H1563       H  0.72481600  0.85346615  0.80492470     0.05100
H1564       H  0.74817633  0.80346858  0.79816950     0.08300
H1565       H  0.74408940  0.82681116  0.84794372     0.08300
H1566       H  0.55009600  0.73566180  0.81696859     0.08300
H1567       H  0.54393104  0.76794380  0.86234394     0.08300
H1568       H  0.56656608  0.71696808  0.86518039     0.05100
C1569       C  0.85877606  0.68023215  0.94705634    -0.20700
C1570       C  0.89838525  0.69473546  0.93533441    -0.07300
C1571       C  0.90243569  0.73253600  0.91359575     0.13600
C1572       C  0.86673358  0.75559295  0.90544740    -0.20800
C1573       C  0.82673918  0.74171890  0.91780520    -0.07300
C1574       C  0.82295494  0.70318490  0.93907661     0.13600
C1575       C  0.78176227  0.68500056  0.95312507    -0.24100
H1576       H  0.85605496  0.65175319  0.96480538     0.14800
H1577       H  0.86984990  0.78391708  0.88766994     0.14900
C1578       C  0.94421087  0.74791843  0.89765961    -0.24100
H1579       H  0.78555530  0.65586501  0.97087879     0.05100
H1580       H  0.76315141  0.67671529  0.92627727     0.08300
H1581       H  0.76488014  0.70738970  0.97330906     0.08300
H1582       H  0.95935718  0.72308879  0.87890834     0.08300
H1583       H  0.96464255  0.75670120  0.92318297     0.08300
H1584       H  0.94111163  0.77594312  0.87816178     0.05100
C1585       C  0.69364329  0.81670666  0.93681903    -0.20700
C1586       C  0.73668766  0.81167181  0.92804820    -0.07300
C1587       C  0.76087412  0.84893499  0.92281864     0.13600
C1588       C  0.74082599  0.88780597  0.92393124    -0.20800
C1589       C  0.69739551  0.89118966  0.92872897    -0.07300
C1590       C  0.67339003  0.85449751  0.93288863     0.13600
C1591       C  0.62636867  0.85401016  0.93493969    -0.24100
H1592       H  0.67430570  0.79077012  0.94644684     0.14800
H1593       H  0.75940664  0.91615569  0.92162030     0.14900
C1594       C  0.80741671  0.84937230  0.91615621    -0.24100
H1595       H  0.61347385  0.82176153  0.93329357     0.05100
H1596       H  0.61395170  0.87125798  0.90858493     0.08300
H1597       H  0.61020540  0.87208119  0.45218116     0.08300
H1598       H  0.81561540  0.83711588  0.88533723     0.08300
H1599       H  0.82235288  0.83094463  0.94013852     0.08300
H1600       H  0.82065486  0.88146495  0.91771719     0.05100
loop_ 
_geom_bond_atom_site_label_1 
_geom_bond_atom_site_label_2 
_geom_bond_distance 
_geom_bond_site_symmetry_2 
_ccdc_geom_bond_type 
C1            C2   1.417       .  A
C1            C6   1.400       .  A
C1          C773   1.491       .  S
C2            C3   1.405       .  A
C2          C786   1.529       .  S
C3            C4   1.396       .  A
C3            H8   1.077       .  S
C4            C5   1.397       .  A
C4          C757   1.482       .  S
C5            C6   1.410       .  A
C5          C738   1.488       .  S
C6            H7   1.081       .  S
C9           C10   1.423       .  A
C9           C14   1.403       .  A
C9          C722   1.525       .  S
C10          C11   1.411       .  A
C10         C706   1.497       .  S
C11          C12   1.403       .  A
C11          H16   1.084       .  S
C12          C13   1.415       .  A
C12         C674   1.525       .  S
C13          C14   1.410       .  A
C13         C690   1.494       .  S
C14          H15   1.086       .  S
C17          C18   1.407       .  A
C17          C22   1.393       .  A
C17         C645   1.475       .  S
C18          C19   1.399       .  A
C18         C658   1.490       .  S
C19          C20   1.407       .  A
C19          H24   1.082       .  S
C20          C21   1.422       .  A
C20         C626   1.500       .  S
C21          C22   1.409       .  A
C21         C610   1.489       .  S
C22          H23   1.089       .  S
C25          C26   1.433       .  A
C25          C30   1.408       .  A
C25         C578   1.521       .  S
C26          C27   1.406       .  A
C26         C594   1.486       .  S
C27          C28   1.393       .  A
C27          H32   1.089       .  S
C28          C29   1.413       .  A
C28         C562   1.495       .  S
C29          C30   1.400       .  A
C29         C546   1.496       .  S
C30          H31   1.080       .  S
C33          C34   1.391       .  A
C33          C38   1.396       .  A
C33         C530   1.475       .  S
C34          C35   1.401       .  A
C34         C514   1.486       .  S
C35          C36   1.409       .  A
C35          H40   1.081       .  S
C36          C37   1.423       .  A
C36         C485   1.519       .  S
C37          C38   1.398       .  A
C37         C498   1.485       .  S
C38          H39   1.084       .  S
C41          C42   1.418       .  A
C41          C46   1.396       .  A
C41         C450   1.484       .  S
C42          C43   1.403       .  A
C42         C469   1.493       .  S
C43          C44   1.402       .  A
C43          H48   1.080       .  S
C44          C45   1.430       .  A
C44         C434   1.512       .  S
C45          C46   1.406       .  A
C45         C418   1.486       .  S
C46          H47   1.087       .  S
C49          C50   1.393       .  A
C49          C54   1.382       .  A
C49         C405   1.452       .  S
C50          C51   1.390       .  A
C50         C389   1.456       .  S
C51          C52   1.389       .  A
C51          H56   1.087       .  S
C52          C53   1.411       .  A
C52         C354   1.466       .  S
C53          C54   1.400       .  A
C53         C370   1.465       .  S
C54          H55   1.087       .  S
O57          C72   1.255       .  A
O57         Al65   1.886       .  S
C58          O68   1.274       .  A
C58          O59   1.287       .  A
C58         C145   1.579       .  S
O59         Al61   2.001       .  S
O60          C62   1.259       .  A
O60         Al61   1.887       .  S
Al61         O69   1.970       .  S
Al61         O71   1.962       .  S
Al61         O70   1.778       .  S
C62         C501   1.462       .  S
C62          O75   1.254       .  A
O63          C73   1.255       .  A
O63         Al65   1.902       .  S
O64          C77   1.271       .  A
O64         Al74   1.913       .  S
Al65         O78   1.889       .  S
Al65         O75   1.868       .  S
Al65         O70   1.788       .  S
O66          C73   1.265       .  A
O66         Al74   1.944       .  S
O67          C76   1.274       .  A
O67         Al74   1.969       .  S
O68         Al74   1.968       .  S
O69          C76   1.264       .  A
O70         Al74   1.784       .  S
O71          C72   1.273       .  A
C72         C549   1.493       .  S
C73         C421   1.492       .  S
C76         C164   1.529       .  S
C77         C754   1.468       .  S
C77          O78   1.262       .  A
O79          C94   1.261       .  A
O79        Al887   1.897   1_564  S
C80          O90   1.263       .  A
C80          O81   1.274   1_545  A
C80         C162   1.523       .  S
O81        Al883   1.987       .  S
O82          C84   1.263       .  A
O82        Al883   1.898       .  S
Al83         O91   1.929   1_556  S
Al83         O93   1.946   1_556  S
Al83        O881   1.998       .  S
Al83        O882   1.899       .  S
Al83        O892   1.768   1_565  S
C84         C789   1.474       .  S
C84          O97   1.260       .  A
O85          C95   1.257       .  A
O85         Al87   1.896       .  S
O86          C99   1.254       .  A
O86         Al96   1.866   1_554  S
Al87         O97   1.889   1_545  S
Al87        O879   1.900   1_545  S
Al87        O900   1.905       .  S
Al87         O92   1.788       .  S
O88          C95   1.275       .  A
O88        Al896   1.977       .  S
O89          C98   1.278       .  A
O89         Al96   1.995   1_554  S
O90        Al896   1.910       .  S
O91          C98   1.263   1_565  A
O92        Al883   1.766   1_545  S
O92        Al896   1.768       .  S
O93          C94   1.272       .  A
C94         C453   1.496       .  S
C95         C709   1.489       .  S
Al96        O888   1.971       .  S
Al96        O890   1.911       .  S
Al96        O892   1.770       .  S
C98         C150   1.538       .  S
C99         C402   1.445       .  S
C99         O100   1.261       .  A
O100       Al887   1.906   1_554  S
O101        C116   1.258       .  A
O101       Al109   1.879       .  S
C102        O112   1.290       .  A
C102        O103   1.288   1_545  A
C102        C147   1.544       .  S
O103       Al905   1.977   1_554  S
O104        C106   1.247       .  A
O104       Al905   1.878   1_554  S
Al105       O113   1.948       .  S
Al105       O115   1.967       .  S
Al105       O903   1.980       .  S
Al105       O904   1.875       .  S
Al105       O114   1.788       .  S
C106        C533   1.481       .  S
C106        O119   1.252       .  A
O107        C117   1.251       .  A
O107       Al909   1.900   1_545  S
O108        C121   1.281       .  A
O108       Al118   1.943       .  S
Al109       O122   1.879   1_565  S
Al109       O907   1.891   1_565  S
Al109       O919   1.877       .  S
Al109       O114   1.787       .  S
O110        C117   1.248       .  A
O110       Al918   1.891   1_554  S
O111        C120   1.250       .  A
O111       Al118   1.917       .  S
O112       Al918   1.992   1_554  S
O113        C120   1.253   1_565  A
O114       Al118   1.776   1_565  S
O115        C116   1.283       .  A
C116        C581   1.497       .  S
C117        C338   1.494       .  S
Al118       O910   1.897       .  S
Al118       O912   1.998       .  S
O119       Al909   1.882       .  S
C120        C159   1.526       .  S
C121        C661   1.477       .  S
C121        O122   1.264       .  A
O123        C138   1.276       .  A
O123       Al131   1.910       .  S
C124        O134   1.294       .  A
C124        O125   1.288       .  A
C124        C157   1.543       .  S
O125       Al127   1.969       .  S
O126        C128   1.289       .  A
O126       Al127   1.957       .  S
Al127       O135   2.002       .  S
Al127       O137   1.895       .  S
Al127       O136   1.865       .  S
C128        C629   1.476       .  S
C128        O141   1.265       .  A
O129        C139   1.279       .  A
O129       Al131   1.913       .  S
O130        C143   1.272       .  A
O130       Al140   1.922       .  S
Al131       O144   1.892       .  S
Al131       O141   1.869       .  S
Al131       O136   1.868       .  S
O132        C139   1.304       .  A
O132       Al140   1.989       .  S
O133        C142   1.288       .  A
O133       Al140   1.961       .  S
O134       Al140   1.957       .  S
O135        C142   1.298       .  A
O136       Al140   1.859       .  S
O137        C138   1.271       .  A
C138        C322   1.483       .  S
C139        C677   1.507       .  S
C142        C152   1.522       .  S
C143        C373   1.487       .  S
C143        O144   1.269       .  A
C145        C146   1.571       .  S
C145        C151   1.500   1_565  S
C145        C149   1.561       .  S
C146        H153   1.086       .  S
C146        C147   1.400   1_565  D
C147        C148   1.560       .  S
C148        C152   1.602       .  S
C148        C150   1.561       .  S
C148        H154   1.110       .  S
C149        H155   1.086       .  S
C149        C150   1.393   1_565  D
C151        H156   1.088       .  S
C151        C152   1.341       .  D
C157        C158   1.554       .  S
C157        C163   1.514       .  S
C157        C161   1.541       .  S
C158        H165   1.086       .  S
C158        C159   1.385       .  D
C159        C160   1.561   1_545  S
C160        C164   1.601       .  S
C160        C162   1.569   1_565  S
C160        H166   1.110       .  S
C161        H167   1.079       .  S
C161        C162   1.384       .  D
C163        H168   1.086       .  S
C163        C164   1.346   1_545  D
O169        C184   1.262       .  A
O169       Al177   1.881       .  S
C170        O180   1.306       .  A
C170        O171   1.279       .  A
C170        C262   1.521       .  S
O171       Al173   1.979       .  S
O172        C174   1.287       .  A
O172       Al173   1.983       .  S
Al173       O181   2.037       .  S
Al173       O183   1.887       .  S
Al173       O182   1.747       .  S
C174        C437   1.500       .  S
C174        O187   1.255       .  A
O175        C185   1.271       .  A
O175       Al177   1.908       .  S
O176        C189   1.276       .  A
O176       Al186   1.963       .  S
Al177       O190   1.916       .  S
Al177       O187   1.859       .  S
Al177       O182   1.735       .  S
O178        C185   1.299       .  A
O178       Al186   1.970       .  S
O179        C188   1.275       .  A
O179       Al186   1.897       .  S
O180       Al186   1.994       .  S
O181        C188   1.297       .  A
O182       Al186   1.687       .  S
O183        C184   1.257       .  A
C184        C741   1.483       .  S
C185        C357   1.466       .  S
C188        C271   1.522       .  S
C189        C693   1.487       .  S
C189        O190   1.261       .  A
O191        C206   1.253       .  A
O191       Al999   1.865       .  S
C192        O202   1.282   1_455  A
C192        O193   1.269       .  A
C192        C276   1.532       .  S
O193       Al195   1.966       .  S
O194        C196   1.270       .  A
O194       Al195   1.950       .  S
Al195      O1003   1.982       .  S
Al195      O1005   1.923       .  S
Al195       O204   1.778       .  S
C196        C597   1.487       .  S
C196        O209   1.258       .  A
O197        C207   1.255       .  A
O197       Al199   1.874   1_655  S
O198        C211   1.274       .  A
O198       Al208   1.971       .  S
Al199       O209   1.899       .  S
Al199       O991   1.866       .  S
Al199      O1012   1.888   1_455  S
Al199       O204   1.782       .  S
O200        C207   1.266       .  A
O200      Al1008   1.916       .  S
O201        C210   1.269   1_655  A
O201       Al208   1.976       .  S
O202      Al1008   1.987       .  S
O203        C210   1.277       .  A
O203       Al995   1.975       .  S
O204      Al1008   1.782   1_455  S
O205        C206   1.272       .  A
O205       Al995   1.934       .  S
C206        C517   1.470       .  S
C207        C770   1.470       .  S
Al208      O1000   1.911   1_554  S
Al208      O1002   1.988   1_554  S
Al208      O1004   1.784   1_655  S
C210        C264   1.533       .  S
C211        C466   1.488       .  S
C211        O212   1.253       .  A
O212       Al999   1.883   1_655  S
O213        C228   1.271       .  A
O213       Al221   1.906   1_455  S
C214        O224   1.286   1_455  A
C214        O215   1.291       .  A
C214        C257   1.545   1_455  S
O215      Al1017   1.978       .  S
O216        C218   1.289       .  A
O216      Al1017   1.968       .  S
Al217       O225   2.010       .  S
Al217       O227   1.899       .  S
Al217      O1015   1.978       .  S
Al217      O1016   1.969       .  S
Al217       O226   1.871       .  S
C218        C306   1.483       .  S
C218        O231   1.269       .  A
O219        C229   1.277       .  A
O219      Al1021   1.907       .  S
O220        C233   1.311       .  A
O220       Al230   2.031       .  S
Al221       O234   1.859       .  S
Al221      O1019   1.903       .  S
Al221      O1031   1.886   1_655  S
Al221       O226   1.876   1_655  S
O222        C229   1.265       .  A
O222      Al1030   1.869   1_554  S
O223        C232   1.296   1_655  A
O223       Al230   1.914       .  S
O224      Al1030   1.946   1_554  S
O225        C232   1.303       .  A
O226       Al230   1.851   1_455  S
O227        C228   1.272       .  A
C228        C642   1.476       .  S
C229        C386   1.469       .  S
Al230      O1022   1.867       .  S
Al230      O1024   1.947       .  S
O231      Al1021   1.887   1_455  S
C232        C269   1.539       .  S
C233        C725   1.509       .  S
C233        O234   1.267       .  A
O235        C250   1.250       .  A
O235       Al243   1.891       .  S
C236        O246   1.270       .  A
C236        O237   1.259       .  A
C236        C259   1.544       .  S
O237       Al239   1.932       .  S
O238        C240   1.273       .  A
O238       Al239   1.945       .  S
Al239       O247   1.972       .  S
Al239       O249   1.922       .  S
Al239       O248   1.770       .  S
C240        C293   1.463       .  S
C240        O253   1.256       .  A
O241        C251   1.253       .  A
O241       Al243   1.860       .  S
O242        C255   1.276       .  A
O242       Al252   1.961       .  S
Al243       O256   1.901       .  S
Al243       O253   1.864       .  S
Al243       O248   1.796       .  S
O244        C251   1.261       .  A
O244       Al252   1.903       .  S
O245        C254   1.262       .  A
O245       Al252   1.922       .  S
O246       Al252   1.992       .  S
O247        C254   1.281       .  A
O248       Al252   1.796       .  S
O249        C250   1.260       .  A
C250        C613   1.484       .  S
C251        C482   1.470       .  S
C254        C274   1.520       .  S
C255        C565   1.500       .  S
C255        O256   1.265       .  A
C257        C258   1.557   1_655  S
C257        C263   1.516   1_655  S
C257        C261   1.554       .  S
C258        H265   1.086       .  S
C258        C259   1.389       .  D
C259        C260   1.571   1_455  S
C260        C264   1.596   1_655  S
C260        C262   1.572       .  S
C260        H266   1.110       .  S
C261        H267   1.086       .  S
C261        C262   1.380       .  D
C263        H268   1.086       .  S
C263        C264   1.345       .  D
C269        C270   1.551   1_455  S
C269        C275   1.516       .  S
C269        C273   1.537       .  S
C270        H277   1.080       .  S
C270        C271   1.389       .  D
C271        C272   1.557   1_655  S
C272        C276   1.601       .  S
C272        C274   1.574       .  S
C272        H278   1.110       .  S
C273        H279   1.086       .  S
C273        C274   1.374       .  D
C275        H280   1.086       .  S
C275        C276   1.347       .  D
C281        C282   1.422       .  A
C281        C286   1.405       .  A
C281        C341   1.488       .  S
C282        C283   1.405       .  A
C282        C309   1.499       .  S
C283        C284   1.400       .  A
C283        H288   1.080       .  S
C284        C285   1.406       .  A
C284        C290   1.484       .  S
C285        C286   1.391       .  A
C285        C325   1.474       .  S
C286        H287   1.087       .  S
C289        C290   1.416       .  A
C289        C294   1.403       .  A
C289        H296   1.087       .  S
C290        C291   1.410       .  A
C291        C292   1.399       .  A
C291        C298   1.501       .  S
C292        C293   1.402       .  A
C292        H297   1.091       .  S
C293        C294   1.401       .  A
C294        C295   1.505       .  S
C295        H299   1.111       .  S
C295        H300   1.110       .  S
C295        H301   1.111       .  S
C298        H302   1.106       .  S
C298        H303   1.112       .  S
C298        H304   1.109       .  S
C305        C306   1.395       .  A
C305        C310   1.406       .  A
C305        H312   1.084       .  S
C306        C307   1.421       .  A
C307        C308   1.400       .  A
C307        C314   1.499       .  S
C308        C309   1.397       .  A
C308        H313   1.081       .  S
C309        C310   1.425       .  A
C310        C311   1.502       .  S
C311        H315   1.110       .  S
C311        H316   1.106       .  S
C311        H317   1.111       .  S
C314        H320   1.104   1_554  S
C314       H1118   1.099       .  S
C314       H1119   1.110       .  S
H318       C1114   1.098       .  S
H319       C1114   1.111       .  S
C321        C322   1.407       .  A
C321        C326   1.408       .  A
C321        H328   1.083       .  S
C322        C323   1.425       .  A
C323        C324   1.392       .  A
C323        C330   1.512       .  S
C324        C325   1.401       .  A
C324        H329   1.086       .  S
C325        C326   1.412       .  A
C326        C327   1.504       .  S
C327        H331   1.111       .  S
C327        H332   1.110       .  S
C327        H333   1.110       .  S
C330        H334   1.104       .  S
C330        H335   1.110       .  S
C330        H336   1.111       .  S
C337        C338   1.407       .  A
C337        C342   1.413       .  A
C337        H344   1.085       .  S
C338        C339   1.423       .  A
C339        C340   1.400       .  A
C339        C346   1.510       .  S
C340        C341   1.400       .  A
C340        H345   1.086       .  S
C341        C342   1.419       .  A
C342        C343   1.504       .  S
C343        H347   1.110       .  S
C343        H348   1.107       .  S
C343        H349   1.111       .  S
C346        H350   1.097   1_554  S
C346        H351   1.110       .  S
C346        H352   1.110   1_554  S
C353        C354   1.400       .  A
C353        C358   1.404       .  A
C353        H360   1.084       .  S
C354        C355   1.417       .  A
C355        C356   1.393       .  A
C355        C362   1.509       .  S
C356        C357   1.400       .  A
C356        H361   1.085       .  S
C357        C358   1.417       .  A
C358        C359   1.508       .  S
C359        H363   1.111       .  S
C359        H364   1.110       .  S
C359        H365   1.108       .  S
C362        H366   1.111       .  S
C362        H367   1.109       .  S
C362        H368   1.111       .  S
C369        C370   1.409       .  A
C369        C374   1.405       .  A
C369        H376   1.086       .  S
C370        C371   1.401       .  A
C371        C372   1.397       .  A
C371        C378   1.503       .  S
C372        C373   1.411       .  A
C372        H377   1.084       .  S
C373        C374   1.421       .  A
C374        C375   1.508       .  S
C375        H379   1.111       .  S
C375        H380   1.110       .  S
C375        H381   1.109       .  S
C378        H382   1.110       .  S
C378        H383   1.110       .  S
C378        H384   1.111       .  S
C385        C386   1.399       .  A
C385        C390   1.391       .  A
C385        H392   1.083       .  S
C386        C387   1.425       .  A
C387        C388   1.395       .  A
C387        C394   1.510   1_554  S
C388        C389   1.396       .  A
C388        H393   1.085       .  S
C389        C390   1.410       .  A
C390        C391   1.503       .  S
C391        H395   1.111       .  S
C391        H396   1.108       .  S
C391        H397   1.109       .  S
C394        H400   1.111       .  S
C394       H1198   1.102       .  S
C394       H1199   1.110       .  S
H398       C1194   1.102       .  S
H399       C1194   1.110       .  S
C401        C402   1.402       .  A
C401        C406   1.388       .  A
C401        H408   1.084       .  S
C402        C403   1.400       .  A
C403        C404   1.395       .  A
C403        C410   1.506       .  S
C404        C405   1.406       .  A
C404        H409   1.082       .  S
C405        C406   1.405       .  A
C406        C407   1.507       .  S
C407        H411   1.108   1_554  S
C407        H412   1.109       .  S
C407        H413   1.110       .  S
C410        H414   1.110       .  S
C410        H415   1.111       .  S
C410        H416   1.111       .  S
C417        C418   1.415       .  A
C417        C422   1.417       .  A
C417        H424   1.085       .  S
C418        C419   1.413       .  A
C419        C420   1.404       .  A
C419        C426   1.507       .  S
C420        C421   1.403       .  A
C420        H425   1.080       .  S
C421        C422   1.411       .  A
C422        C423   1.504       .  S
C423        H427   1.111       .  S
C423        H428   1.111       .  S
C423        H429   1.110       .  S
C426        H430   1.110       .  S
C426        H431   1.104       .  S
C426        H432   1.099       .  S
C433        C434   1.390       .  A
C433        C438   1.407       .  A
C433        H440   1.076       .  S
C434        C435   1.430       .  A
C435        C436   1.406       .  A
C435        C442   1.508       .  S
C436        C437   1.397       .  A
C436        H441   1.084       .  S
C437        C438   1.436       .  A
C438        C439   1.508       .  S
C439        H443   1.111       .  S
C439        H444   1.101       .  S
C439        H445   1.110       .  S
C442        H446   1.108       .  S
C442        H447   1.110       .  S
C442        H448   1.110       .  S
C449        C450   1.406       .  A
C449        C454   1.417       .  A
C449        H456   1.083       .  S
C450        C451   1.419       .  A
C451        C452   1.397       .  A
C451        C458   1.512       .  S
C452        C453   1.404       .  A
C452        H457   1.082       .  S
C453        C454   1.421       .  A
C454        C455   1.506       .  S
C455        H459   1.111       .  S
C455        H460   1.111       .  S
C455        H461   1.110       .  S
C458        H462   1.110       .  S
C458        H463   1.108       .  S
C458        H464   1.102       .  S
C465        C466   1.399       .  A
C465        C470   1.400       .  A
C465        H472   1.079       .  S
C466        C467   1.414       .  A
C467        C468   1.417       .  A
C467        C474   1.500       .  S
C468        C469   1.416       .  A
C468        H473   1.083       .  S
C469        C470   1.409       .  A
C470        C471   1.494       .  S
C471        H475   1.109   1_554  S
C471        H476   1.103       .  S
C471        H477   1.107       .  S
C474        H478   1.102       .  S
C474        H479   1.111       .  S
C474        H480   1.111       .  S
C481        C482   1.408       .  A
C481        C486   1.398       .  A
C481        H488   1.085       .  S
C482        C483   1.402       .  A
C483        C484   1.389       .  A
C483        C490   1.514       .  S
C484        C485   1.427       .  A
C484        H489   1.073       .  S
C485        C486   1.418       .  A
C486        C487   1.503       .  S
C487        H491   1.111       .  S
C487        H492   1.108       .  S
C487        H493   1.103       .  S
C490        H494   1.109       .  S
C490        H495   1.111       .  S
C490        H496   1.110       .  S
C497        C498   1.413       .  A
C497        C502   1.399       .  A
C497        H504   1.084       .  S
C498        C499   1.416       .  A
C499        C500   1.396       .  A
C499        C506   1.503       .  S
C500        C501   1.400       .  A
C500        H505   1.085       .  S
C501        C502   1.408       .  A
C502        C503   1.507       .  S
C503        H507   1.111       .  S
C503        H508   1.109       .  S
C503        H509   1.110       .  S
C506        H510   1.105       .  S
C506        H511   1.102       .  S
C506        H512   1.107       .  S
C513        C514   1.398       .  A
C513        C518   1.400       .  A
C513        H520   1.085       .  S
C514        C515   1.432       .  A
C515        C516   1.400       .  A
C515        C522   1.511       .  S
C516        C517   1.392       .  A
C516        H521   1.086       .  S
C517        C518   1.418       .  A
C518        C519   1.504       .  S
C519        H523   1.111       .  S
C519        H524   1.107       .  S
C519        H525   1.108       .  S
C522        H526   1.102       .  S
C522        H527   1.106       .  S
C522        H528   1.111       .  S
C529        C530   1.397       .  A
C529        C534   1.396       .  A
C529        H536   1.084       .  S
C530        C531   1.416       .  A
C531        C532   1.401       .  A
C531        C538   1.508       .  S
C532        C533   1.406       .  A
C532        H537   1.081       .  S
C533        C534   1.426       .  A
C534        C535   1.510       .  S
C535        H539   1.110       .  S
C535       H1340   1.110       .  S
C535       H1341   1.107   1_554  S
C538        H542   1.104       .  S
C538        H543   1.110       .  S
C538        H544   1.110       .  S
H540       C1335   1.110       .  S
H541       C1335   1.107       .  S
C545        C546   1.394       .  A
C545        C550   1.410       .  A
C545        H552   1.084       .  S
C546        C547   1.427       .  A
C547        C548   1.406       .  A
C547        C554   1.504       .  S
C548        C549   1.396       .  A
C548        H553   1.083       .  S
C549        C550   1.426       .  A
C550        C551   1.500       .  S
C551        H555   1.111       .  S
C551        H556   1.110       .  S
C551        H557   1.094       .  S
C554        H558   1.110       .  S
C554        H559   1.111       .  S
C554        H560   1.110       .  S
C561        C562   1.409       .  A
C561        C566   1.418       .  A
C561        H568   1.083       .  S
C562        C563   1.419       .  A
C563        C564   1.402       .  A
C563        C570   1.506       .  S
C564        C565   1.405       .  A
C564        H569   1.084       .  S
C565        C566   1.419       .  A
C566        C567   1.505       .  S
C567        H571   1.111       .  S
C567        H572   1.109       .  S
C567        H573   1.111       .  S
C570        H574   1.105       .  S
C570        H575   1.107       .  S
C570        H576   1.108       .  S
C577        C578   1.399       .  A
C577        C582   1.406       .  A
C577        H584   1.078       .  S
C578        C579   1.429       .  A
C579        C580   1.407       .  A
C579        C586   1.503       .  S
C580        C581   1.396       .  A
C580        H585   1.085       .  S
C581        C582   1.430       .  A
C582        C583   1.507       .  S
C583        H587   1.111       .  S
C583        H588   1.110       .  S
C583       H1389   1.097       .  S
C586        H590   1.110       .  S
C586        H591   1.111       .  S
C586        H592   1.110       .  S
H589       C1383   1.095   1_554  S
C593        C594   1.413       .  A
C593        C598   1.416       .  A
C593        H600   1.083       .  S
C594        C595   1.415       .  A
C595        C596   1.399       .  A
C595        C602   1.506       .  S
C596        C597   1.401       .  A
C596        H601   1.082       .  S
C597        C598   1.412       .  A
C598        C599   1.504       .  S
C599        H603   1.111       .  S
C599        H604   1.110       .  S
C599        H605   1.111       .  S
C602        H606   1.111       .  S
C602        H607   1.108       .  S
C602        H608   1.108       .  S
C609        C610   1.399       .  A
C609        C614   1.396       .  A
C609        H616   1.085       .  S
C610        C611   1.416       .  A
C611        C612   1.415       .  A
C611        C618   1.504       .  S
C612        C613   1.408       .  A
C612        H617   1.083       .  S
C613        C614   1.418       .  A
C614        C615   1.502       .  S
C615        H619   1.110       .  S
C615        H620   1.109       .  S
C615        H621   1.096       .  S
C618        H622   1.110       .  S
C618        H623   1.110       .  S
C618        H624   1.110       .  S
C625        C626   1.401       .  A
C625        C630   1.401       .  A
C625        H632   1.080       .  S
C626        C627   1.425       .  A
C627        C628   1.401       .  A
C627        C634   1.506       .  S
C628        C629   1.394       .  A
C628        H633   1.084       .  S
C629        C630   1.419       .  A
C630        C631   1.505       .  S
C631        H635   1.110       .  S
C631        H636   1.097       .  S
C631        H637   1.110       .  S
C634        H638   1.110       .  S
C634        H639   1.111       .  S
C634        H640   1.110       .  S
C641        C642   1.409       .  A
C641        C646   1.410       .  A
C641        H648   1.084       .  S
C642        C643   1.417       .  A
C643        C644   1.391       .  A
C643        C650   1.510       .  S
C644        C645   1.403       .  A
C644        H649   1.086       .  S
C645        C646   1.409       .  A
C646        C647   1.503       .  S
C647        H651   1.111       .  S
C647        H652   1.111       .  S
C647        H653   1.110       .  S
C650        H655   1.111       .  S
C650        H656   1.107       .  S
C650       H1454   1.109       .  S
H654       C1450   1.109       .  S
C657        C658   1.416       .  A
C657        C662   1.406       .  A
C657        H664   1.084       .  S
C658        C659   1.411       .  A
C659        C660   1.400       .  A
C659        C666   1.502       .  S
C660        C661   1.406       .  A
C660        H665   1.084       .  S
C661        C662   1.404       .  A
C662        C663   1.506       .  S
C663        H667   1.111       .  S
C663        H668   1.111       .  S
C663        H669   1.110       .  S
C666        H670   1.107       .  S
C666        H671   1.108       .  S
C666        H672   1.110       .  S
C673        C674   1.420       .  A
C673        C678   1.408       .  A
C673        H680   1.077       .  S
C674        C675   1.414       .  A
C675        C676   1.410       .  A
C675        C682   1.503       .  S
C676        C677   1.417       .  A
C676        H681   1.084       .  S
C677        C678   1.408       .  A
C678        C679   1.501       .  S
C679        H683   1.109       .  S
C679        H684   1.109       .  S
C679        H685   1.110       .  S
C682        H686   1.109       .  S
C682        H687   1.105       .  S
C682        H688   1.111       .  S
C689        C690   1.414       .  A
C689        C694   1.418       .  A
C689        H696   1.083       .  S
C690        C691   1.401       .  A
C691        C692   1.395       .  A
C691        C698   1.489       .  S
C692        C693   1.398       .  A
C692        H697   1.072       .  S
C693        C694   1.415       .  A
C694        C695   1.504       .  S
C695        H699   1.110       .  S
C695        H700   1.110       .  S
C695        H701   1.106       .  S
C698        H702   1.110       .  S
C698        H703   1.108       .  S
C698        H704   1.104       .  S
C705        C706   1.414       .  A
C705        C710   1.418       .  A
C705        H712   1.084       .  S
C706        C707   1.406       .  A
C707        C708   1.399       .  A
C707        C714   1.492       .  S
C708        C709   1.400       .  A
C708        H713   1.083       .  S
C709        C710   1.413       .  A
C710        C711   1.503       .  S
C711        H715   1.111       .  S
C711        H716   1.106       .  S
C711        H717   1.110       .  S
C714        H718   1.109       .  S
C714        H719   1.110       .  S
C714        H720   1.104       .  S
C721        C722   1.425       .  A
C721        C726   1.412       .  A
C721        H728   1.074       .  S
C722        C723   1.410       .  A
C723        C724   1.407       .  A
C723        C730   1.503       .  S
C724        C725   1.421       .  A
C724        H729   1.083       .  S
C725        C726   1.404       .  A
C726        C727   1.500       .  S
C727        H731   1.106       .  S
C727        H732   1.111       .  S
C727        H733   1.107       .  S
C730        H734   1.106       .  S
C730        H735   1.110       .  S
C730        H736   1.111       .  S
C737        C738   1.399       .  A
C737        C742   1.398       .  A
C737        H744   1.086       .  S
C738        C739   1.419       .  A
C739        C740   1.399       .  A
C739        C746   1.511       .  S
C740        C741   1.404       .  A
C740        H745   1.084       .  S
C741        C742   1.427       .  A
C742        C743   1.510       .  S
C743        H747   1.111       .  S
C743        H748   1.104       .  S
C743        H749   1.110       .  S
C746        H750   1.110       .  S
C746        H751   1.104       .  S
C746        H752   1.111       .  S
C753        C754   1.396       .  A
C753        C758   1.397       .  A
C753        H760   1.083       .  S
C754        C755   1.415       .  A
C755        C756   1.401       .  A
C755        C762   1.509       .  S
C756        C757   1.401       .  A
C756        H761   1.083       .  S
C757        C758   1.427       .  A
C758        C759   1.512       .  S
C759        H763   1.110       .  S
C759        H764   1.107       .  S
C759        H765   1.099       .  S
C762        H766   1.108       .  S
C762        H767   1.110       .  S
C762        H768   1.111       .  S
C769        C770   1.397       .  A
C769        C774   1.401       .  A
C769        H776   1.085       .  S
C770        C771   1.413       .  A
C771        C772   1.400       .  A
C771        C778   1.510       .  S
C772        C773   1.407       .  A
C772        H777   1.082       .  S
C773        C774   1.424       .  A
C774        C775   1.504       .  S
C775        H779   1.111       .  S
C775        H780   1.101       .  S
C775        H781   1.108       .  S
C778        H782   1.110       .  S
C778        H783   1.108       .  S
C778        H784   1.111       .  S
C785        C786   1.423       .  A
C785        C790   1.388       .  A
C785        H792   1.072       .  S
C786        C787   1.428       .  A
C787        C788   1.405       .  A
C787        C794   1.505       .  S
C788        C789   1.405       .  A
C788        H793   1.085       .  S
C789        C790   1.404       .  A
C790        C791   1.513       .  S
C791        H795   1.111       .  S
C791        H796   1.111       .  S
C791       H1597   1.107       .  S
C794        H798   1.107       .  S
C794        H799   1.104       .  S
C794        H800   1.111       .  S
H797       C1591   1.106       .  S
C801        C802   1.414       .  A
C801        C806   1.401       .  A
C801       C1573   1.491       .  S
C802        C803   1.407       .  A
C802       C1586   1.521       .  S
C803        C804   1.390       .  A
C803        H808   1.080       .  S
C804        C805   1.395       .  A
C804       C1557   1.480       .  S
C805        C806   1.410       .  A
C805       C1538   1.490       .  S
C806        H807   1.084       .  S
C809        C810   1.421       .  A
C809        C814   1.400       .  A
C809       C1522   1.519       .  S
C810        C811   1.411       .  A
C810       C1506   1.492       .  S
C811        C812   1.402       .  A
C811        H816   1.082       .  S
C812        C813   1.412       .  A
C812       C1474   1.520       .  S
C813        C814   1.408       .  A
C813       C1490   1.488       .  S
C814        H815   1.086       .  S
C817        C818   1.407       .  A
C817        C822   1.394       .  A
C817       C1445   1.474       .  S
C818        C819   1.401       .  A
C818       C1458   1.489       .  S
C819        C820   1.406       .  A
C819        H824   1.080       .  S
C820        C821   1.423       .  A
C820       C1426   1.503       .  S
C821        C822   1.407       .  A
C821       C1410   1.486       .  S
C822        H823   1.088       .  S
C825        C826   1.434       .  A
C825        C830   1.408       .  A
C825       C1378   1.523       .  S
C826        C827   1.408       .  A
C826       C1394   1.487       .  S
C827        C828   1.393       .  A
C827        H832   1.088       .  S
C828        C829   1.410       .  A
C828       C1362   1.495       .  S
C829        C830   1.399       .  A
C829       C1346   1.494       .  S
C830        H831   1.077       .  S
C833        C834   1.389       .  A
C833        C838   1.396       .  A
C833       C1330   1.472       .  S
C834        C835   1.400       .  A
C834       C1314   1.484       .  S
C835        C836   1.408       .  A
C835        H840   1.082       .  S
C836        C837   1.424       .  A
C836       C1285   1.518       .  S
C837        C838   1.399       .  A
C837       C1298   1.482       .  S
C838        H839   1.085       .  S
C841        C842   1.419       .  A
C841        C846   1.394       .  A
C841       C1250   1.484       .  S
C842        C843   1.404       .  A
C842       C1269   1.489       .  S
C843        C844   1.400       .  A
C843        H848   1.083       .  S
C844        C845   1.423       .  A
C844       C1234   1.503       .  S
C845        C846   1.401       .  A
C845       C1218   1.480       .  S
C846        H847   1.088       .  S
C849        C850   1.394       .  A
C849        C854   1.386       .  A
C849       C1205   1.450       .  S
C850        C851   1.385       .  A
C850       C1189   1.454       .  S
C851        C852   1.386       .  A
C851        H856   1.087       .  S
C852        C853   1.409       .  A
C852       C1154   1.461       .  S
C853        C854   1.399       .  A
C853       C1170   1.467       .  S
C854        H855   1.087       .  S
O857        C872   1.255       .  A
O857       Al865   1.886       .  S
C858        O868   1.273       .  A
C858        O859   1.285       .  A
C858        C945   1.578       .  S
O859       Al861   1.996       .  S
O860        C862   1.260       .  A
O860       Al861   1.887       .  S
Al861       O869   1.973       .  S
Al861       O871   1.957       .  S
Al861       O870   1.778       .  S
C862       C1301   1.461       .  S
C862        O875   1.254       .  A
O863        C873   1.254       .  A
O863       Al865   1.897       .  S
O864        C877   1.270       .  A
O864       Al874   1.913       .  S
Al865       O878   1.889       .  S
Al865       O875   1.866       .  S
Al865       O870   1.787       .  S
O866        C873   1.265       .  A
O866       Al874   1.939       .  S
O867        C876   1.275       .  A
O867       Al874   1.969       .  S
O868       Al874   1.969       .  S
O869        C876   1.265       .  A
O870       Al874   1.783       .  S
O871        C872   1.271       .  A
C872       C1349   1.490       .  S
C873       C1221   1.491       .  S
C876        C964   1.531       .  S
C877       C1554   1.468       .  S
C877        O878   1.262       .  A
O879        C894   1.262       .  A
C880        O890   1.262       .  A
C880        O881   1.277   1_545  A
C880        C962   1.530       .  S
O882        C884   1.262       .  A
Al883       O891   1.926       .  S
Al883       O893   1.936       .  S
C884       C1589   1.473       .  S
C884        O897   1.260       .  A
O885        C895   1.258       .  A
O885       Al887   1.897       .  S
O886        C899   1.253       .  A
O886       Al896   1.864       .  S
Al887       O897   1.892   1_545  S
Al887       O892   1.787       .  S
O888        C895   1.274       .  A
O889        C898   1.278       .  A
O889       Al896   1.996       .  S
O891        C898   1.263   1_565  A
O893        C894   1.270       .  A
C894       C1253   1.497       .  S
C895       C1509   1.486       .  S
C898        C950   1.536       .  S
C899       C1202   1.443       .  S
C899        O900   1.261       .  A
O901        C916   1.259       .  A
O901       Al909   1.884   1_556  S
C902        O912   1.292       .  A
C902        O903   1.288   1_545  A
C902        C947   1.547       .  S
O904        C906   1.247       .  A
Al905       O913   1.953       .  S
Al905       O915   1.968       .  S
Al905       O914   1.790   1_556  S
C906       C1333   1.478       .  S
C906        O919   1.250       .  A
O907        C917   1.248       .  A
O908        C921   1.280       .  A
O908       Al918   1.942       .  S
Al909       O922   1.873   1_564  S
Al909       O914   1.789       .  S
O910        C917   1.249       .  A
O911        C920   1.250       .  A
O911       Al918   1.916       .  S
O913        C920   1.254   1_565  A
O914       Al918   1.777   1_564  S
O915        C916   1.284       .  A
C916       C1381   1.499       .  S
C917       C1138   1.491       .  S
C920        C959   1.529       .  S
C921       C1461   1.475       .  S
C921        O922   1.262       .  A
O923        C938   1.277       .  A
O923       Al931   1.916       .  S
C924        O934   1.297       .  A
C924        O925   1.289       .  A
C924        C957   1.549       .  S
O925       Al927   1.973       .  S
O926        C928   1.289       .  A
O926       Al927   1.956       .  S
Al927       O935   1.999       .  S
Al927       O937   1.890       .  S
Al927       O936   1.861       .  S
C928       C1429   1.480       .  S
C928        O941   1.267       .  A
O929        C939   1.280       .  A
O929       Al931   1.911       .  S
O930        C943   1.272       .  A
O930       Al940   1.922       .  S
Al931       O944   1.900       .  S
Al931       O941   1.879       .  S
Al931       O936   1.866       .  S
O932        C939   1.305       .  A
O932       Al940   1.990       .  S
O933        C942   1.287       .  A
O933       Al940   1.958       .  S
O934       Al940   1.964       .  S
O935        C942   1.298       .  A
O936       Al940   1.858       .  S
O937        C938   1.270       .  A
C938       C1122   1.484       .  S
C939       C1477   1.505       .  S
C942        C952   1.518       .  S
C943       C1173   1.486       .  S
C943        O944   1.272       .  A
C945        C946   1.573       .  S
C945        C951   1.498   1_565  S
C945        C949   1.559       .  S
C946        H953   1.085       .  S
C946        C947   1.401   1_565  D
C947        C948   1.562       .  S
C948        C952   1.602       .  S
C948        C950   1.561       .  S
C948        H954   1.110       .  S
C949        H955   1.085       .  S
C949        C950   1.392   1_565  D
C951        H956   1.091       .  S
C951        C952   1.340       .  D
C957        C958   1.555       .  S
C957        C963   1.512       .  S
C957        C961   1.543       .  S
C958        H965   1.086       .  S
C958        C959   1.386       .  D
C959        C960   1.561   1_545  S
C960        C964   1.605       .  S
C960        C962   1.570   1_565  S
C960        H966   1.110       .  S
C961        H967   1.079       .  S
C961        C962   1.387       .  D
C963        H968   1.089       .  S
C963        C964   1.345   1_545  D
O969        C984   1.276       .  A
O969       Al977   1.892       .  S
C970        O980   1.302       .  A
C970        O971   1.286       .  A
C970       C1062   1.520       .  S
O971       Al973   1.978       .  S
O972        C974   1.295       .  A
O972       Al973   1.989       .  S
Al973       O981   2.029       .  S
Al973       O983   1.887       .  S
Al973       O982   1.873       .  S
C974       C1237   1.494       .  S
C974        O987   1.263       .  A
O975        C985   1.277       .  A
O975       Al977   1.900       .  S
O976        C989   1.282       .  A
O976       Al986   1.955       .  S
Al977       O990   1.909       .  S
Al977       O987   1.857       .  S
Al977       O982   1.864       .  S
O978        C985   1.298       .  A
O978       Al986   1.950       .  S
O979        C988   1.281       .  A
O979       Al986   1.896       .  S
O980       Al986   1.973       .  S
O981        C988   1.303       .  A
O982       Al986   1.833       .  S
O983        C984   1.268       .  A
C984       C1541   1.480       .  S
C985       C1157   1.462       .  S
C988       C1071   1.521       .  S
C989       C1493   1.483       .  S
C989        O990   1.269       .  A
O991       C1006   1.254       .  A
C992       O1002   1.283   1_455  A
C992        O993   1.270       .  A
C992       C1076   1.535       .  S
O993       Al995   1.970   1_556  S
O994        C996   1.269       .  A
O994       Al995   1.943   1_556  S
Al995      O1004   1.780       .  S
C996       C1397   1.488       .  S
C996       O1009   1.259       .  A
O997       C1007   1.254       .  A
O997       Al999   1.874   1_656  S
O998       C1011   1.273       .  A
O998      Al1008   1.970       .  S
Al999      O1009   1.901   1_554  S
Al999      O1004   1.782       .  S
O1000      C1007   1.264       .  A
O1001      C1010   1.270   1_655  A
O1001     Al1008   1.978       .  S
O1003      C1010   1.279       .  A
O1005      C1006   1.269       .  A
C1006      C1317   1.465       .  S
C1007      C1570   1.468       .  S
C1010      C1064   1.537       .  S
C1011      C1266   1.490       .  S
C1011      O1012   1.253       .  A
O1013      C1028   1.271       .  A
O1013     Al1021   1.905   1_456  S
C1014      O1024   1.287   1_455  A
C1014      O1015   1.290       .  A
C1014      C1057   1.547       .  S
O1016      C1018   1.289       .  A
Al1017     O1025   2.006   1_554  S
Al1017     O1027   1.898   1_554  S
Al1017     O1026   1.872       .  S
C1018      C1106   1.481       .  S
C1018      O1031   1.269       .  A
O1019      C1029   1.277       .  A
O1020      C1033   1.309       .  A
O1020     Al1030   2.021       .  S
Al1021     O1034   1.855   1_554  S
Al1021     O1026   1.874   1_655  S
O1022      C1029   1.265       .  A
O1023      C1032   1.294   1_655  A
O1023     Al1030   1.920       .  S
O1025      C1032   1.301       .  A
O1026     Al1030   1.851   1_454  S
O1027      C1028   1.272       .  A
C1028      C1442   1.474       .  S
C1029      C1186   1.468       .  S
C1032      C1069   1.540       .  S
C1033      C1525   1.505       .  S
C1033      O1034   1.267       .  A
O1035      C1050   1.251       .  A
O1035     Al1043   1.895       .  S
C1036      O1046   1.271       .  A
C1036      O1037   1.261       .  A
C1036      C1059   1.548       .  S
O1037     Al1039   1.935       .  S
O1038      C1040   1.273       .  A
O1038     Al1039   1.947       .  S
Al1039     O1047   1.977       .  S
Al1039     O1049   1.924       .  S
Al1039     O1048   1.772       .  S
C1040      C1093   1.464       .  S
C1040      O1053   1.256       .  A
O1041      C1051   1.252       .  A
O1041     Al1043   1.864       .  S
O1042      C1055   1.277       .  A
O1042     Al1052   1.957       .  S
Al1043     O1056   1.900       .  S
Al1043     O1053   1.867       .  S
Al1043     O1048   1.799       .  S
O1044      C1051   1.261       .  A
O1044     Al1052   1.903       .  S
O1045      C1054   1.262       .  A
O1045     Al1052   1.927       .  S
O1046     Al1052   1.998       .  S
O1047      C1054   1.280       .  A
O1048     Al1052   1.795       .  S
O1049      C1050   1.261       .  A
C1050      C1413   1.484       .  S
C1051      C1282   1.474       .  S
C1054      C1074   1.525       .  S
C1055      C1365   1.502       .  S
C1055      O1056   1.265       .  A
C1057      C1058   1.557       .  S
C1057      C1063   1.516       .  S
C1057      C1061   1.552   1_455  S
C1058      H1065   1.086       .  S
C1058      C1059   1.390       .  D
C1059      C1060   1.574   1_455  S
C1060      C1064   1.600   1_655  S
C1060      C1062   1.570       .  S
C1060      H1066   1.110       .  S
C1061      H1067   1.085       .  S
C1061      C1062   1.380       .  D
C1063      H1068   1.087       .  S
C1063      C1064   1.345       .  D
C1069      C1070   1.550   1_455  S
C1069      C1075   1.515       .  S
C1069      C1073   1.542       .  S
C1070      H1077   1.080       .  S
C1070      C1071   1.389       .  D
C1071      C1072   1.557   1_655  S
C1072      C1076   1.605       .  S
C1072      C1074   1.573       .  S
C1072      H1078   1.110       .  S
C1073      H1079   1.086       .  S
C1073      C1074   1.377       .  D
C1075      H1080   1.085       .  S
C1075      C1076   1.345       .  D
C1081      C1082   1.421       .  A
C1081      C1086   1.403       .  A
C1081      C1141   1.484       .  S
C1082      C1083   1.405       .  A
C1082      C1109   1.499       .  S
C1083      C1084   1.401       .  A
C1083      H1088   1.080       .  S
C1084      C1085   1.405       .  A
C1084      C1090   1.483       .  S
C1085      C1086   1.390       .  A
C1085      C1125   1.472       .  S
C1086      H1087   1.087       .  S
C1089      C1090   1.416       .  A
C1089      C1094   1.403       .  A
C1089      H1096   1.085       .  S
C1090      C1091   1.409       .  A
C1091      C1092   1.400       .  A
C1091      C1098   1.501       .  S
C1092      C1093   1.403       .  A
C1092      H1097   1.088       .  S
C1093      C1094   1.401       .  A
C1094      C1095   1.505       .  S
C1095      H1099   1.111       .  S
C1095      H1100   1.110       .  S
C1095      H1101   1.111       .  S
C1098      H1102   1.106       .  S
C1098      H1103   1.111       .  S
C1098      H1104   1.109       .  S
C1105      C1106   1.396       .  A
C1105      C1110   1.406       .  A
C1105      H1112   1.083       .  S
C1106      C1107   1.420       .  A
C1107      C1108   1.397       .  A
C1107      C1114   1.499       .  S
C1108      C1109   1.397       .  A
C1108      H1113   1.080       .  S
C1109      C1110   1.425       .  A
C1110      C1111   1.502       .  S
C1111      H1115   1.110       .  S
C1111      H1116   1.107       .  S
C1111      H1117   1.111       .  S
C1114      H1120   1.104       .  S
C1121      C1122   1.408       .  A
C1121      C1126   1.410       .  A
C1121      H1128   1.082       .  S
C1122      C1123   1.426       .  A
C1123      C1124   1.391       .  A
C1123      C1130   1.513       .  S
C1124      C1125   1.399       .  A
C1124      H1129   1.085       .  S
C1125      C1126   1.412       .  A
C1126      C1127   1.504       .  S
C1127      H1131   1.110       .  S
C1127      H1132   1.110       .  S
C1127      H1133   1.110       .  S
C1130      H1134   1.102       .  S
C1130      H1135   1.110       .  S
C1130      H1136   1.111       .  S
C1137      C1138   1.408       .  A
C1137      C1142   1.410       .  A
C1137      H1144   1.086       .  S
C1138      C1139   1.423       .  A
C1139      C1140   1.400       .  A
C1139      C1146   1.511       .  S
C1140      C1141   1.400       .  A
C1140      H1145   1.087       .  S
C1141      C1142   1.415       .  A
C1142      C1143   1.503       .  S
C1143      H1147   1.110       .  S
C1143      H1148   1.108       .  S
C1143      H1149   1.111       .  S
C1146      H1150   1.097       .  S
C1146      H1151   1.110       .  S
C1146      H1152   1.111       .  S
C1153      C1154   1.399       .  A
C1153      C1158   1.401       .  A
C1153      H1160   1.085       .  S
C1154      C1155   1.416       .  A
C1155      C1156   1.390       .  A
C1155      C1162   1.509       .  S
C1156      C1157   1.400       .  A
C1156      H1161   1.085       .  S
C1157      C1158   1.418       .  A
C1158      C1159   1.510       .  S
C1159      H1163   1.111       .  S
C1159      H1164   1.110       .  S
C1159      H1165   1.108       .  S
C1162      H1166   1.111       .  S
C1162      H1167   1.109       .  S
C1162      H1168   1.111       .  S
C1169      C1170   1.410       .  A
C1169      C1174   1.406       .  A
C1169      H1176   1.085       .  S
C1170      C1171   1.401       .  A
C1171      C1172   1.397       .  A
C1171      C1178   1.503       .  S
C1172      C1173   1.410       .  A
C1172      H1177   1.082       .  S
C1173      C1174   1.419       .  A
C1174      C1175   1.508       .  S
C1175      H1179   1.111       .  S
C1175      H1180   1.111       .  S
C1175      H1181   1.110       .  S
C1178      H1182   1.110       .  S
C1178      H1183   1.110       .  S
C1178      H1184   1.111       .  S
C1185      C1186   1.399       .  A
C1185      C1190   1.389       .  A
C1185      H1192   1.083       .  S
C1186      C1187   1.425       .  A
C1187      C1188   1.395       .  A
C1187      C1194   1.509       .  S
C1188      C1189   1.397       .  A
C1188      H1193   1.086       .  S
C1189      C1190   1.410       .  A
C1190      C1191   1.502       .  S
C1191      H1195   1.111       .  S
C1191      H1196   1.108       .  S
C1191      H1197   1.109       .  S
C1194      H1200   1.110       .  S
C1201      C1202   1.403       .  A
C1201      C1206   1.388       .  A
C1201      H1208   1.085       .  S
C1202      C1203   1.399       .  A
C1203      C1204   1.393       .  A
C1203      C1210   1.506       .  S
C1204      C1205   1.405       .  A
C1204      H1209   1.081       .  S
C1205      C1206   1.404       .  A
C1206      C1207   1.507       .  S
C1207      H1211   1.109       .  S
C1207      H1212   1.109       .  S
C1207      H1213   1.110       .  S
C1210      H1214   1.110       .  S
C1210      H1215   1.110       .  S
C1210      H1216   1.111       .  S
C1217      C1218   1.413       .  A
C1217      C1222   1.416       .  A
C1217      H1224   1.084       .  S
C1218      C1219   1.411       .  A
C1219      C1220   1.398       .  A
C1219      C1226   1.504       .  S
C1220      C1221   1.402       .  A
C1220      H1225   1.082       .  S
C1221      C1222   1.413       .  A
C1222      C1223   1.504       .  S
C1223      H1227   1.111       .  S
C1223      H1228   1.110       .  S
C1223      H1229   1.110       .  S
C1226      H1230   1.108       .  S
C1226      H1231   1.107       .  S
C1226      H1232   1.109       .  S
C1233      C1234   1.394       .  A
C1233      C1238   1.405       .  A
C1233      H1240   1.077       .  S
C1234      C1235   1.429       .  A
C1235      C1236   1.405       .  A
C1235      C1242   1.508       .  S
C1236      C1237   1.395       .  A
C1236      H1241   1.083       .  S
C1237      C1238   1.433       .  A
C1238      C1239   1.507       .  S
C1239      H1243   1.111       .  S
C1239      H1244   1.098       .  S
C1239      H1245   1.110       .  S
C1242      H1246   1.109       .  S
C1242      H1247   1.110       .  S
C1242      H1248   1.110       .  S
C1249      C1250   1.405       .  A
C1249      C1254   1.416       .  A
C1249      H1256   1.085       .  S
C1250      C1251   1.419       .  A
C1251      C1252   1.395       .  A
C1251      C1258   1.513       .  S
C1252      C1253   1.405       .  A
C1252      H1257   1.085       .  S
C1253      C1254   1.422       .  A
C1254      C1255   1.506       .  S
C1255      H1259   1.111       .  S
C1255      H1260   1.110       .  S
C1255      H1261   1.110       .  S
C1258      H1262   1.111       .  S
C1258      H1263   1.108       .  S
C1258      H1264   1.103       .  S
C1265      C1266   1.399       .  A
C1265      C1270   1.399       .  A
C1265      H1272   1.074       .  S
C1266      C1267   1.415       .  A
C1267      C1268   1.417       .  A
C1267      C1274   1.500       .  S
C1268      C1269   1.415       .  A
C1268      H1273   1.084       .  S
C1269      C1270   1.405       .  A
C1270      C1271   1.492       .  S
C1271      H1275   1.107       .  S
C1271      H1276   1.102       .  S
C1271      H1277   1.106       .  S
C1274      H1278   1.102       .  S
C1274      H1279   1.110       .  S
C1274      H1280   1.111       .  S
C1281      C1282   1.410       .  A
C1281      C1286   1.400       .  A
C1281      H1288   1.084       .  S
C1282      C1283   1.402       .  A
C1283      C1284   1.389       .  A
C1283      C1290   1.514       .  S
C1284      C1285   1.425       .  A
C1284      H1289   1.070       .  S
C1285      C1286   1.416       .  A
C1286      C1287   1.503       .  S
C1287      H1291   1.111       .  S
C1287      H1292   1.109       .  S
C1287      H1293   1.104       .  S
C1290      H1294   1.109       .  S
C1290      H1295   1.110       .  S
C1290      H1296   1.110       .  S
C1297      C1298   1.412       .  A
C1297      C1302   1.399       .  A
C1297      H1304   1.084       .  S
C1298      C1299   1.416       .  A
C1299      C1300   1.394       .  A
C1299      C1306   1.505       .  S
C1300      C1301   1.400       .  A
C1300      H1305   1.085       .  S
C1301      C1302   1.409       .  A
C1302      C1303   1.508       .  S
C1303      H1307   1.111       .  S
C1303      H1308   1.109       .  S
C1303      H1309   1.110       .  S
C1306      H1310   1.107       .  S
C1306      H1311   1.104       .  S
C1306      H1312   1.108       .  S
C1313      C1314   1.398       .  A
C1313      C1318   1.399       .  A
C1313      H1320   1.084       .  S
C1314      C1315   1.432       .  A
C1315      C1316   1.398       .  A
C1315      C1322   1.511       .  S
C1316      C1317   1.392       .  A
C1316      H1321   1.084       .  S
C1317      C1318   1.415       .  A
C1318      C1319   1.503       .  S
C1319      H1323   1.111       .  S
C1319      H1324   1.110       .  S
C1319      H1325   1.108       .  S
C1322      H1326   1.104       .  S
C1322      H1327   1.106       .  S
C1322      H1328   1.111       .  S
C1329      C1330   1.396       .  A
C1329      C1334   1.395       .  A
C1329      H1336   1.085       .  S
C1330      C1331   1.416       .  A
C1331      C1332   1.399       .  A
C1331      C1338   1.508       .  S
C1332      C1333   1.405       .  A
C1332      H1337   1.084       .  S
C1333      C1334   1.425       .  A
C1334      C1335   1.509       .  S
C1335      H1339   1.109       .  S
C1338      H1342   1.105       .  S
C1338      H1343   1.110       .  S
C1338      H1344   1.111       .  S
C1345      C1346   1.394       .  A
C1345      C1350   1.410       .  A
C1345      H1352   1.083       .  S
C1346      C1347   1.427       .  A
C1347      C1348   1.404       .  A
C1347      C1354   1.506       .  S
C1348      C1349   1.395       .  A
C1348      H1353   1.083       .  S
C1349      C1350   1.426       .  A
C1350      C1351   1.501       .  S
C1351      H1355   1.111       .  S
C1351      H1356   1.110       .  S
C1351      H1357   1.094       .  S
C1354      H1358   1.110       .  S
C1354      H1359   1.110       .  S
C1354      H1360   1.110       .  S
C1361      C1362   1.409       .  A
C1361      C1366   1.418       .  A
C1361      H1368   1.083       .  S
C1362      C1363   1.418       .  A
C1363      C1364   1.401       .  A
C1363      C1370   1.508       .  S
C1364      C1365   1.406       .  A
C1364      H1369   1.084       .  S
C1365      C1366   1.420       .  A
C1366      C1367   1.506       .  S
C1367      H1371   1.111       .  S
C1367      H1372   1.110       .  S
C1367      H1373   1.110       .  S
C1370      H1374   1.107       .  S
C1370      H1375   1.107       .  S
C1370      H1376   1.109       .  S
C1377      C1378   1.400       .  A
C1377      C1382   1.407       .  A
C1377      H1384   1.080       .  S
C1378      C1379   1.430       .  A
C1379      C1380   1.408       .  A
C1379      C1386   1.505       .  S
C1380      C1381   1.397       .  A
C1380      H1385   1.084       .  S
C1381      C1382   1.430       .  A
C1382      C1383   1.506       .  S
C1383      H1387   1.111       .  S
C1383      H1388   1.110       .  S
C1386      H1390   1.111       .  S
C1386      H1391   1.110       .  S
C1386      H1392   1.110       .  S
C1393      C1394   1.411       .  A
C1393      C1398   1.416       .  A
C1393      H1400   1.084       .  S
C1394      C1395   1.414       .  A
C1395      C1396   1.399       .  A
C1395      C1402   1.505       .  S
C1396      C1397   1.402       .  A
C1396      H1401   1.081       .  S
C1397      C1398   1.412       .  A
C1398      C1399   1.504       .  S
C1399      H1403   1.111       .  S
C1399      H1404   1.110       .  S
C1399      H1405   1.111       .  S
C1402      H1406   1.110   1_556  S
C1402      H1407   1.108       .  S
C1402      H1408   1.109       .  S
C1409      C1410   1.399       .  A
C1409      C1414   1.396       .  A
C1409      H1416   1.087       .  S
C1410      C1411   1.416       .  A
C1411      C1412   1.415       .  A
C1411      C1418   1.505       .  S
C1412      C1413   1.407       .  A
C1412      H1417   1.084       .  S
C1413      C1414   1.417       .  A
C1414      C1415   1.502       .  S
C1415      H1419   1.110       .  S
C1415      H1420   1.108       .  S
C1415      H1421   1.097       .  S
C1418      H1422   1.110       .  S
C1418      H1423   1.110       .  S
C1418      H1424   1.111       .  S
C1425      C1426   1.402       .  A
C1425      C1430   1.404       .  A
C1425      H1432   1.081       .  S
C1426      C1427   1.426       .  A
C1427      C1428   1.402       .  A
C1427      C1434   1.506       .  S
C1428      C1429   1.393       .  A
C1428      H1433   1.083       .  S
C1429      C1430   1.420       .  A
C1430      C1431   1.504       .  S
C1431      H1435   1.109       .  S
C1431      H1436   1.097       .  S
C1431      H1437   1.110       .  S
C1434      H1438   1.110       .  S
C1434      H1439   1.111       .  S
C1434      H1440   1.110       .  S
C1441      C1442   1.409       .  A
C1441      C1446   1.409       .  A
C1441      H1448   1.085       .  S
C1442      C1443   1.417       .  A
C1443      C1444   1.391       .  A
C1443      C1450   1.510       .  S
C1444      C1445   1.403       .  A
C1444      H1449   1.087       .  S
C1445      C1446   1.409       .  A
C1446      C1447   1.503       .  S
C1447      H1451   1.111       .  S
C1447      H1452   1.110       .  S
C1447      H1453   1.110       .  S
C1450      H1455   1.111       .  S
C1450      H1456   1.107   1_556  S
C1457      C1458   1.416       .  A
C1457      C1462   1.405       .  A
C1457      H1464   1.085       .  S
C1458      C1459   1.411       .  A
C1459      C1460   1.399       .  A
C1459      C1466   1.502       .  S
C1460      C1461   1.407       .  A
C1460      H1465   1.085       .  S
C1461      C1462   1.404       .  A
C1462      C1463   1.506       .  S
C1463      H1467   1.111       .  S
C1463      H1468   1.110       .  S
C1463      H1469   1.110       .  S
C1466      H1470   1.106       .  S
C1466      H1471   1.108       .  S
C1466      H1472   1.110       .  S
C1473      C1474   1.419       .  A
C1473      C1478   1.408       .  A
C1473      H1480   1.078       .  S
C1474      C1475   1.414       .  A
C1475      C1476   1.407       .  A
C1475      C1482   1.504       .  S
C1476      C1477   1.416       .  A
C1476      H1481   1.083       .  S
C1477      C1478   1.409       .  A
C1478      C1479   1.501       .  S
C1479      H1483   1.110       .  S
C1479      H1484   1.109       .  S
C1479      H1485   1.110       .  S
C1482      H1486   1.109       .  S
C1482      H1487   1.105       .  S
C1482      H1488   1.111       .  S
C1489      C1490   1.413       .  A
C1489      C1494   1.414       .  A
C1489      H1496   1.083       .  S
C1490      C1491   1.400       .  A
C1491      C1492   1.396       .  A
C1491      C1498   1.494       .  S
C1492      C1493   1.400       .  A
C1492      H1497   1.065       .  S
C1493      C1494   1.413       .  A
C1494      C1495   1.504       .  S
C1495      H1499   1.110       .  S
C1495      H1500   1.110       .  S
C1495      H1501   1.107       .  S
C1498      H1502   1.109       .  S
C1498      H1503   1.109       .  S
C1498      H1504   1.105       .  S
C1505      C1506   1.414       .  A
C1505      C1510   1.415       .  A
C1505      H1512   1.085       .  S
C1506      C1507   1.406       .  A
C1507      C1508   1.399       .  A
C1507      C1514   1.498       .  S
C1508      C1509   1.402       .  A
C1508      H1513   1.082       .  S
C1509      C1510   1.411       .  A
C1510      C1511   1.504       .  S
C1511      H1515   1.111       .  S
C1511      H1516   1.107       .  S
C1511      H1517   1.110       .  S
C1514      H1518   1.109       .  S
C1514      H1519   1.110       .  S
C1514      H1520   1.105       .  S
C1521      C1522   1.423       .  A
C1521      C1526   1.410       .  A
C1521      H1528   1.077       .  S
C1522      C1523   1.409       .  A
C1523      C1524   1.405       .  A
C1523      C1530   1.504       .  S
C1524      C1525   1.421       .  A
C1524      H1529   1.085       .  S
C1525      C1526   1.404       .  A
C1526      C1527   1.501       .  S
C1527      H1531   1.107       .  S
C1527      H1532   1.110       .  S
C1527      H1533   1.107       .  S
C1530      H1534   1.106       .  S
C1530      H1535   1.110       .  S
C1530      H1536   1.111       .  S
C1537      C1538   1.398       .  A
C1537      C1542   1.396       .  A
C1537      H1544   1.085       .  S
C1538      C1539   1.421       .  A
C1539      C1540   1.398       .  A
C1539      C1546   1.510       .  S
C1540      C1541   1.403       .  A
C1540      H1545   1.084       .  S
C1541      C1542   1.427       .  A
C1542      C1543   1.511       .  S
C1543      H1547   1.111       .  S
C1543      H1548   1.103       .  S
C1543      H1549   1.110       .  S
C1546      H1550   1.110       .  S
C1546      H1551   1.104       .  S
C1546      H1552   1.111       .  S
C1553      C1554   1.397       .  A
C1553      C1558   1.398       .  A
C1553      H1560   1.082       .  S
C1554      C1555   1.415       .  A
C1555      C1556   1.400       .  A
C1555      C1562   1.509       .  S
C1556      C1557   1.401       .  A
C1556      H1561   1.081       .  S
C1557      C1558   1.424       .  A
C1558      C1559   1.510       .  S
C1559      H1563   1.110       .  S
C1559      H1564   1.106       .  S
C1559      H1565   1.098       .  S
C1562      H1566   1.108       .  S
C1562      H1567   1.110       .  S
C1562      H1568   1.110       .  S
C1569      C1570   1.398       .  A
C1569      C1574   1.401       .  A
C1569      H1576   1.086       .  S
C1570      C1571   1.411       .  A
C1571      C1572   1.400       .  A
C1571      C1578   1.509       .  S
C1572      C1573   1.408       .  A
C1572      H1577   1.083       .  S
C1573      C1574   1.423       .  A
C1574      C1575   1.506       .  S
C1575      H1579   1.111       .  S
C1575      H1580   1.104       .  S
C1575      H1581   1.109       .  S
C1578      H1582   1.111       .  S
C1578      H1583   1.108       .  S
C1578      H1584   1.111       .  S
C1585      C1586   1.417       .  A
C1585      C1590   1.386       .  A
C1585      H1592   1.078       .  S
C1586      C1587   1.428       .  A
C1587      C1588   1.406       .  A
C1587      C1594   1.506       .  S
C1588      C1589   1.406       .  A
C1588      H1593   1.085       .  S
C1589      C1590   1.406       .  A
C1590      C1591   1.511       .  S
C1591      H1595   1.111       .  S
C1591      H1596   1.110       .  S
C1594      H1598   1.108       .  S
C1594      H1599   1.105       .  S
C1594      H1600   1.111       .  S
