geometry optimzed in LAMMPS
_audit_creation_date              2020-11-30 
_audit_creation_method            'lammps2cif' 
_symmetry_space_group_name_H-M    'P1' 
_symmetry_Int_Tables_number       1 
_symmetry_cell_setting            triclinic 
loop_ 
_symmetry_equiv_pos_as_xyz 
  x,y,z 
_cell_length_a                    27.84276363 
_cell_length_b                    27.905951812925696 
_cell_length_c                    27.77307699836998 
_cell_angle_alpha                 89.42856543417997 
_cell_angle_beta                  89.56987557154888 
_cell_angle_gamma                 90.07428271258257 
loop_ 
_atom_site_label 
_atom_site_type_symbol 
_atom_site_fract_x 
_atom_site_fract_y 
_atom_site_fract_z 
_atom_site_charge 
O1          O  0.58790568  0.49602339  0.03101356    -0.78900
O2          O  0.43051299  0.40154659  0.94209514    -0.78900
O3          O  0.48352722  0.41665714  0.09106970    -0.78900
O4          O  0.57386290  0.47731495  0.92190952    -0.78900
O5          O  0.46934456  0.38491908  0.02257102    -0.79000
O6          O  0.58052553  0.54764143  0.95522089    -0.78900
O7          O  0.50433519  0.40898979  0.91565929    -0.78900
O8          O  0.55081745  0.48226296  0.09729080    -0.78900
C9          C  0.58927866  0.48179211  0.07357972     1.10800
C10         C  0.46642641  0.38431819  0.91942043     1.10700
C11         C  0.48011315  0.37999086  0.06572739     1.10800
C12         C  0.59830068  0.51456408  0.92960513     1.10700
O13         O  0.48240607  0.57538686  0.97853837    -0.78900
O14         O  0.38021924  0.42310242  0.02831776    -0.79000
O15         O  0.48369521  0.55953296  0.07203791    -0.78900
O16         O  0.43315864  0.48285657  0.90128975    -0.78900
O17         O  0.40431705  0.50012151  0.97192842    -0.78900
O18         O  0.55327005  0.58767003  0.04412010    -0.78900
O19         O  0.50358129  0.55109651  0.90730814    -0.78900
O20         O  0.40967341  0.48697434  0.06588579    -0.78900
Co21       Co  0.53278022  0.53378688  0.00824753     1.51500
Co22       Co  0.43884443  0.44418391  0.00011448     1.51700
Co23       Co  0.48382179  0.48545018  0.07073918     1.51600
Co24       Co  0.50359200  0.47953978  0.91708105     1.51500
O25         O  0.50054074  0.47498134  0.99204280    -1.40800
C26         C  0.48865503  0.58435320  0.93427427     1.10700
C27         C  0.37585950  0.45572291  0.05966681     1.10800
C28         C  0.51672067  0.59225343  0.07144429     1.10800
C29         C  0.39920799  0.49906660  0.92696468     1.10700
C30         C  0.19485190  0.47573960  0.15582068     0.04400
C31         C  0.18079997  0.46700735  0.20358990    -0.11800
C32         C  0.13177429  0.46545202  0.21544710     0.01900
C33         C  0.09748905  0.46745718  0.17859081    -0.10300
C34         C  0.11121877  0.47867607  0.13074022     0.04400
C35         C  0.16019995  0.48581727  0.12110892    -0.09700
H36         H  0.20763116  0.46216963  0.23126963     0.10000
H37         H  0.06025241  0.46117048  0.18798266     0.07500
H38         H  0.17220535  0.49720315  0.08567589     0.07300
C39         C  0.78209446  0.45144370  0.14570387     0.04400
C40         C  0.81801440  0.46369966  0.11179531    -0.11800
C41         C  0.86700632  0.45700126  0.12151252     0.01900
C42         C  0.88017805  0.44217292  0.16822154    -0.10300
C43         C  0.84561310  0.43676665  0.20486079     0.04400
C44         C  0.79646453  0.43923208  0.19295222    -0.09700
H45         H  0.80756544  0.47898751  0.07750523     0.10000
H46         H  0.91770713  0.43776331  0.17715292     0.07500
H47         H  0.76993486  0.43214090  0.22077097     0.07300
C48         C  0.14262270  0.51619768  0.79526460     0.04400
C49         C  0.19116428  0.52240630  0.80723725    -0.11800
C50         C  0.20548909  0.52088666  0.85588793     0.01900
C51         C  0.17016328  0.51571544  0.89214477    -0.10300
C52         C  0.12168465  0.50763814  0.88062419     0.04400
C53         C  0.10915537  0.50582011  0.83171524    -0.09700
H54         H  0.21747112  0.52898520  0.77899367     0.10000
H55         H  0.18083673  0.51715210  0.92944932     0.07500
H56         H  0.07257800  0.49787453  0.82145918     0.07300
C57         C  0.84957551  0.50357037  0.79160110     0.04400
C58         C  0.80247535  0.51446620  0.80605546    -0.11800
C59         C  0.79147337  0.52238069  0.85458474     0.01900
C60         C  0.82758632  0.51964047  0.88908899    -0.10300
C61         C  0.87438043  0.50625310  0.87600246     0.04400
C62         C  0.88526422  0.49884685  0.82701100    -0.09700
H63         H  0.77382530  0.51500386  0.77985260     0.10000
H64         H  0.81845466  0.52518049  0.92663441     0.07500
H65         H  0.92151909  0.48933343  0.81652619     0.07300
N66         N  0.99700632  0.49721536  0.92924758    -0.35400
N67         N  0.92059798  0.48420192  0.99939182    -0.55900
N68         N  0.99059612  0.47630259  0.07365353    -0.35400
N69         N  0.06763035  0.49405413  0.00440606    -0.55900
C70         C  0.95826513  0.51623254  0.90738334     0.28200
C71         C  0.03623975  0.51861896  0.91001607     0.28200
C72         C  0.94938229  0.48683774  0.09691906     0.28200
C73         C  0.02704147  0.49416493  0.09962688     0.28200
C74         C  0.89893925  0.47467666  0.95735422     0.36800
C75         C  0.89610580  0.46019299  0.03412820     0.36800
C76         C  0.09332229  0.48259746  0.96475807     0.36800
C77         C  0.08917408  0.47268427  0.04222948     0.36800
C78         C  0.97273069  0.55151441  0.87491646    -0.20600
C79         C  0.02219842  0.55335337  0.87693680    -0.20600
C80         C  0.95928795  0.51413619  0.13708808    -0.20600
C81         C  0.00863282  0.51919330  0.13856421    -0.20600
C82         C  0.86111417  0.44310569  0.96487416    -0.21700
C83         C  0.85994210  0.43316416  0.01366383    -0.21700
C84         C  0.13053304  0.45203364  0.97696771    -0.21700
C85         C  0.12764111  0.44534725  0.02620439    -0.21700
C86         C  0.91124015  0.49854919  0.91395746    -0.17000
C87         C  0.08355319  0.50274338  0.91902348    -0.17000
C88         C  0.07548522  0.48215793  0.09050481    -0.17000
C89         C  0.90453389  0.46767890  0.08370490    -0.17000
H90         H  0.95014454  0.57317493  0.85183773     0.15900
H91         H  0.04517108  0.57687901  0.85585965     0.15900
H92         H  0.93380234  0.52811457  0.16297774     0.15900
H93         H  0.02857727  0.53794489  0.16587408     0.15900
H94         H  0.83702311  0.42889942  0.93813019     0.14100
H95         H  0.83530766  0.40907674  0.03187127     0.14100
H96         H  0.15670146  0.43602083  0.95306501     0.14100
H97         H  0.15131358  0.42316141  0.04761631     0.14100
H98         H  0.99704106  0.46693414  0.95169848     0.27400
H99         H  0.99401107  0.45237265  0.04509943     0.27400
O100        O  0.03242285  0.41599665  0.53296816    -0.78900
O101        O  0.95740148  0.48809552  0.59203595    -0.78900
O102        O  0.05991983  0.50693726  0.57414922    -0.78900
O103        O  0.87996551  0.43583306  0.49183424    -0.78900
O104        O  0.01711133  0.56491462  0.60495277    -0.79000
O105        O  0.93969774  0.40195198  0.52833850    -0.78900
O106        O  0.88918173  0.50835977  0.55727205    -0.78900
O107        O  0.09112549  0.45303438  0.49861310    -0.78900
C108        C  0.07567359  0.41596541  0.52085314     1.10800
C109        C  0.91245587  0.49355108  0.59416088     1.10700
C110        C  0.05123969  0.53561367  0.60938325     1.10800
C111        C  0.89663941  0.40096923  0.51602433     1.10700
O112        O  0.94057958  0.41980804  0.42282128    -0.78900
O113        O  0.02633946  0.58549195  0.50931838    -0.79000
O114        O  0.04665639  0.51350138  0.42860868    -0.78900
O115        O  0.92122048  0.57212245  0.47645242    -0.78900
O116        O  0.93984297  0.58150452  0.55114787    -0.78900
O117        O  0.03675601  0.43467341  0.42798748    -0.78900
O118        O  0.91809449  0.49554456  0.41693931    -0.78900
O119        O  0.10015172  0.55828397  0.50016799    -0.78900
Co120      Co  0.98719381  0.42079810  0.47976957     1.51500
Co121      Co  0.99251598  0.53293080  0.55020735     1.51700
Co122      Co  0.04787966  0.51254315  0.49956271     1.51600
Co123      Co  0.90669693  0.50323425  0.48602452     1.51500
O124        O  0.97802244  0.48914094  0.49669248    -1.40800
C125        C  0.92175743  0.45433627  0.39869660     1.10700
C126        C  0.07147425  0.59382465  0.50383557     1.10800
C127        C  0.05036067  0.47352370  0.40726412     1.10800
C128        C  0.92415805  0.59905453  0.51230203     1.10700
C129        C  0.48246129  0.83364679  0.22625437     0.04400
C130        C  0.48473090  0.78533748  0.21298720    -0.11800
C131        C  0.48975638  0.77354745  0.16435209     0.01900
C132        C  0.49404321  0.80984484  0.12952642    -0.10300
C133        C  0.49846921  0.85836085  0.14225653     0.04400
C134        C  0.48839927  0.86969838  0.19090310    -0.09700
H135        H  0.48200244  0.75726511  0.24011208     0.10000
H136        H  0.49444099  0.79906499  0.09231239     0.07500
H137        H  0.48459246  0.90635501  0.20223852     0.07300
C138        C  0.48849007  0.19149558  0.15181119     0.04400
C139        C  0.47918478  0.18106416  0.20067087    -0.11800
C140        C  0.47144623  0.13325834  0.21553226     0.01900
C141        C  0.47189845  0.09681262  0.18128106    -0.10300
C142        C  0.48501330  0.10644126  0.13331759     0.04400
C143        C  0.49418703  0.15393647  0.11929591    -0.09700
H144        H  0.47623988  0.20980699  0.22645248     0.10000
H145        H  0.46339697  0.06050877  0.19261641     0.07500
H146        H  0.50408251  0.16224523  0.08232444     0.07300
C147        C  0.47800560  0.18711065  0.85619236     0.04400
C148        C  0.48698971  0.15402308  0.89349246    -0.11800
C149        C  0.48920158  0.10443952  0.88461769     0.01900
C150        C  0.48424611  0.08895592  0.83680479    -0.10300
C151        C  0.48018337  0.12183508  0.79858369     0.04400
C152        C  0.47585256  0.17095889  0.80842952    -0.09700
H153        H  0.49248493  0.16738420  0.92949684     0.10000
H154        H  0.48465166  0.05109332  0.82867153     0.07500
H155        H  0.47158930  0.19647473  0.77911340     0.07300
C156        C  0.50607141  0.84653357  0.80613129     0.04400
C157        C  0.49743764  0.79815063  0.81834486    -0.11800
C158        C  0.49828046  0.78277420  0.86696240     0.01900
C159        C  0.50984064  0.81620597  0.90260734    -0.10300
C160        C  0.52041386  0.86460154  0.89133882     0.04400
C161        C  0.51460928  0.87920647  0.84305237    -0.09700
H162        H  0.49007003  0.77266143  0.79021886     0.10000
H163        H  0.50981657  0.80364259  0.93934091     0.07500
H164        H  0.51534143  0.91654218  0.83301726     0.07300
N165        N  0.49659660  0.05558451  0.01160243    -0.35400
N166        N  0.51225923  0.98481671  0.94080704    -0.55900
N167        N  0.51237856  0.90910091  0.01626981    -0.35400
N168        N  0.49632339  0.98134144  0.08837036    -0.55900
C169        C  0.47833390  0.07633827  0.97157937     0.28200
C170        C  0.47429736  0.07497988  0.04980635     0.28200
C171        C  0.53375369  0.88653698  0.97903550     0.28200
C172        C  0.52311457  0.88397625  0.05670753     0.28200
C173        C  0.52225416  0.02574690  0.91639084     0.36800
C174        C  0.53699482  0.94982439  0.91892998     0.36800
C175        C  0.50765900  0.02215213  0.11126922     0.36800
C176        C  0.51253405  0.94514980  0.11629048     0.36800
C177        C  0.44224193  0.10804215  0.98458150    -0.20600
C178        C  0.44007491  0.10753345  0.03425189    -0.20600
C179        C  0.56080618  0.84850774  0.99608738    -0.20600
C180        C  0.55422463  0.84694042  0.04517257    -0.20600
C181        C  0.55575363  0.01724677  0.88035239    -0.21700
C182        C  0.56548901  0.96889860  0.88229921    -0.21700
C183        C  0.53408602  0.01202672  0.15220255    -0.21700
C184        C  0.53738872  0.96301317  0.15522303    -0.21700
C185        C  0.49711950  0.06878067  0.92480564    -0.17000
C186        C  0.48904603  0.06713582  0.09762745    -0.17000
C187        C  0.50901561  0.89647887  0.10409487    -0.17000
C188        C  0.53093168  0.90082466  0.93026559    -0.17000
H189        H  0.42010344  0.12963475  0.96103690     0.15900
H190        H  0.41643295  0.12889385  0.05640954     0.15900
H191        H  0.58408652  0.82533099  0.97537974     0.15900
H192        H  0.57214654  0.82265598  0.06976827     0.15900
H193        H  0.57109036  0.04293862  0.85516991     0.13200
H194        H  0.58990867  0.94971592  0.85893355     0.14100
H195        H  0.54931544  0.03719964  0.17725713     0.14100
H196        H  0.55720454  0.94293006  0.18203117     0.14100
H197        H  0.52725114  0.03343918  0.01341471     0.27400
H198        H  0.48795843  0.93764775  0.01349571     0.27400
C199        C  0.12396876  0.79472441  0.52945565     0.04400
C200        C  0.09069190  0.83282320  0.53396521    -0.11800
C201        C  0.10554803  0.88124458  0.54161844     0.01900
C202        C  0.15598020  0.88998357  0.54107091    -0.10300
C203        C  0.18963954  0.85237791  0.53663783     0.04400
C204        C  0.17297425  0.80561656  0.53084388    -0.09700
H205        H  0.05315217  0.82429163  0.53063277     0.10000
H206        H  0.17009085  0.92586673  0.54201085     0.07500
H207        H  0.19898228  0.77722456  0.52648516     0.07300
C208        C  0.76953768  0.14561997  0.49627172     0.04400
C209        C  0.78071640  0.19342218  0.50454407    -0.11800
C210        C  0.82833759  0.20850744  0.50656524     0.01900
C211        C  0.86563092  0.17508559  0.49980232    -0.10300
C212        C  0.85634047  0.12642088  0.48911798     0.04400
C213        C  0.80700413  0.11232244  0.48921257    -0.09700
H214        H  0.75199105  0.21898375  0.51021587     0.10000
H215        H  0.90185144  0.18769257  0.50445418     0.07500
H216        H  0.79636347  0.07544845  0.48615832     0.07300
C217        C  0.13691104  0.21852032  0.51942958     0.04400
C218        C  0.10004182  0.18340701  0.51946566    -0.11800
C219        C  0.11046194  0.13418036  0.51185006     0.01900
C220        C  0.15952968  0.12140969  0.50655107    -0.10300
C221        C  0.19678992  0.15538666  0.51128494     0.04400
C222        C  0.18493691  0.20381154  0.51634297    -0.09700
H223        H  0.06332027  0.19478239  0.52509716     0.10000
H224        H  0.16920016  0.08451834  0.49974830     0.07500
H225        H  0.21332716  0.23019567  0.51943143     0.07300
C226        C  0.77999250  0.84360305  0.51805106     0.04400
C227        C  0.81082891  0.88375074  0.52319678    -0.11800
C228        C  0.86159189  0.87862510  0.52039001     0.01900
C229        C  0.88025005  0.83265519  0.51201406    -0.10300
C230        C  0.85044015  0.79242775  0.50985553     0.04400
C231        C  0.80036979  0.79804359  0.51211656    -0.09700
H232        H  0.79524539  0.91880954  0.52877778     0.10000
H233        H  0.91858298  0.82763948  0.50744340     0.07500
H234        H  0.77724785  0.76694124  0.50925002     0.07300
N235        N  0.90791845  0.00667449  0.51150122    -0.35400
N236        N  0.98217129  0.93612117  0.53233478    -0.55900
N237        N  0.05919215  0.00747872  0.51961795    -0.35400
N238        N  0.98439942  0.08007513  0.50148271    -0.55900
C239        C  0.88671493  0.96434756  0.50078824     0.28200
C240        C  0.88753896  0.04056243  0.48328151     0.28200
C241        C  0.08205150  0.97145847  0.54363526     0.28200
C242        C  0.08077479  0.04944745  0.53171042     0.28200
C243        C  0.94132121  0.91365446  0.54711848     0.36800
C244        C  0.01909666  0.91185884  0.55252946     0.36800
C245        C  0.94689215  0.10475025  0.48238671     0.36800
C246        C  0.02497399  0.10549334  0.49101925     0.36800
C247        C  0.85405704  0.97114506  0.46397554    -0.20600
C248        C  0.85524954  0.01922250  0.45234010    -0.20600
C249        C  0.11637810  0.99109940  0.57342055    -0.20600
C250        C  0.11570615  0.03996194  0.56582348    -0.20600
C251        C  0.95228599  0.87753851  0.57980050    -0.21700
C252        C  0.00151877  0.87644724  0.58326824    -0.21700
C253        C  0.96421028  0.14405647  0.45671544    -0.21700
C254        C  0.01336193  0.14458990  0.46220531    -0.21700
C255        C  0.89610169  0.92041743  0.52464143    -0.17000
C256        C  0.89767308  0.09016749  0.48516591    -0.17000
C257        C  0.07115863  0.09559026  0.51098279    -0.17000
C258        C  0.06840303  0.92217171  0.54412386    -0.17000
H259        H  0.83246361  0.94424909  0.44650915     0.15900
H260        H  0.83494625  0.03653017  0.42400126     0.15900
H261        H  0.13769873  0.97256156  0.60015714     0.15900
H262        H  0.13744451  0.06577552  0.58461435     0.15900
H263        H  0.92744202  0.85345841  0.59793234     0.14100
H264        H  0.02207404  0.85237212  0.60588738     0.14100
H265        H  0.94376927  0.16890300  0.43484298     0.14100
H266        H  0.03765035  0.17068049  0.44631487     0.14100
H267        H  0.93188112  0.01291064  0.53955357     0.27400
H268        H  0.03278619  0.00307855  0.49357416     0.27400
O269        O  0.39795075  0.93870742  0.53248921    -0.78900
O270        O  0.54185150  0.03813288  0.58776646    -0.78900
O271        O  0.46975533  0.93131355  0.58791126    -0.78900
O272        O  0.43195175  0.10693866  0.50778592    -0.78900
O273        O  0.54676033  0.94197681  0.59386513    -0.79000
O274        O  0.39346992  0.03867942  0.52117503    -0.78900
O275        O  0.46455287  0.04433959  0.57796163    -0.78900
O276        O  0.43034392  0.86676295  0.52547693    -0.78900
C277        C  0.39311207  0.89298516  0.53204369     1.10800
C278        C  0.50059959  0.04843673  0.60462160     1.10700
C279        C  0.50723760  0.92903092  0.61277747     1.10800
C280        C  0.39255277  0.08455987  0.51537104     1.10700
O281        O  0.42449120  0.02727591  0.42076977    -0.78900
O282        O  0.58239467  0.93744222  0.49550597    -0.79000
O283        O  0.49047246  0.89913348  0.45128423    -0.78900
O284        O  0.53605010  0.09189661  0.51546283    -0.78900
O285        O  0.57893553  0.03297448  0.48820838    -0.78900
O286        O  0.42448366  0.93258500  0.42968866    -0.78900
O287        O  0.48904202  0.06462680  0.43953047    -0.78900
O288        O  0.54041137  0.87966487  0.52875259    -0.78900
Co289      Co  0.41858788  0.98423904  0.47890678     1.51500
Co290      Co  0.55855088  0.98773308  0.53837171     1.51700
Co291      Co  0.47779753  0.91783263  0.51821665     1.51600
Co292      Co  0.47475798  0.05225221  0.50779232     1.51500
O293        O  0.49464001  0.98492983  0.50195532    -1.40800
C294        C  0.45802621  0.05533179  0.40882567     1.10700
C295        C  0.58003564  0.89465431  0.51012379     1.10800
C296        C  0.45922417  0.90555453  0.41989954     1.10800
C297        C  0.57538666  0.07664389  0.49748407     1.10700
C298        C  0.69607432  0.83983639  0.55487362     0.24800
C299        C  0.72663015  0.84926090  0.51512683    -0.23300
C300        C  0.70582528  0.86344371  0.47139823     0.19800
C301        C  0.65635067  0.87247562  0.46847329     0.24800
C302        C  0.62605983  0.86718801  0.50915510    -0.23200
C303        C  0.64617102  0.84876061  0.55194306     0.19700
F304        F  0.61836681  0.84328971  0.59198843    -0.13200
F305        F  0.71485962  0.82416899  0.59713899    -0.15500
F306        F  0.63833686  0.88951376  0.42636074    -0.15500
F307        F  0.73386473  0.87007258  0.43167815    -0.13200
C308        C  0.28397874  0.16125309  0.48455152     0.24800
C309        C  0.24816204  0.14009229  0.51407064    -0.23300
C310        C  0.26197793  0.10504838  0.54793201     0.19800
C311        C  0.30977553  0.08979535  0.55070440     0.24800
C312        C  0.34525364  0.10908049  0.51961689    -0.23200
C313        C  0.33202486  0.14571794  0.48713610     0.19700
F314        F  0.36483284  0.16415401  0.45562612    -0.13200
F315        F  0.27206232  0.19540467  0.45161526    -0.15500
F316        F  0.32124089  0.05527521  0.58345198    -0.15500
F317        F  0.22912302  0.08562525  0.57876535    -0.13200
C318        C  0.69919828  0.10892926  0.45440693     0.24800
C319        C  0.71807979  0.13128686  0.49515421    -0.23300
C320        C  0.68689809  0.14233290  0.53376245     0.19800
C321        C  0.63815980  0.12954570  0.53234941     0.24800
C322        C  0.61984688  0.10522456  0.49247141    -0.23200
C323        C  0.65062119  0.09615196  0.45303020     0.19700
F324        F  0.63402655  0.07244150  0.41403250    -0.13200
F325        F  0.72793543  0.09899411  0.41607266    -0.15500
F326        F  0.61000479  0.13704719  0.57167508    -0.15500
F327        F  0.70428268  0.16313045  0.57404689    -0.13200
C328        C  0.32348303  0.84396434  0.50587494     0.24800
C329        C  0.34402036  0.87399307  0.54019117    -0.23300
C330        C  0.31372219  0.89599119  0.57442539     0.19800
C331        C  0.26379686  0.88903650  0.57348670     0.24800
C332        C  0.24283559  0.86071819  0.53760957    -0.23200
C333        C  0.27351629  0.83796457  0.50404257     0.19700
F334        F  0.25501543  0.81188656  0.46757189    -0.13200
F335        F  0.35144172  0.82381550  0.47134151    -0.15500
F336        F  0.23602305  0.91014155  0.60761716    -0.15500
F337        F  0.33247465  0.92567333  0.60792889    -0.13200
C338        C  0.54391543  0.89661878  0.74029269     0.24800
C339        C  0.50726171  0.86464489  0.75524182    -0.23300
C340        C  0.47093038  0.85322260  0.72229264     0.19800
C341        C  0.47051765  0.87440413  0.67616349     0.24800
C342        C  0.50629098  0.90769660  0.66208366    -0.23200
C343        C  0.54324941  0.91800443  0.69461238     0.19700
F344        F  0.57894204  0.94910634  0.68241242    -0.13200
F345        F  0.58099708  0.90703721  0.76992967    -0.15500
F346        F  0.43569976  0.86136621  0.64492103    -0.15500
F347        F  0.43508658  0.82252067  0.73502660    -0.13200
C348        C  0.52859347  0.08435923  0.73321794     0.24800
C349        C  0.48488338  0.10435643  0.74856332    -0.23300
C350        C  0.44613969  0.10593013  0.71661208     0.19800
C351        C  0.45098201  0.08753805  0.66998354     0.24800
C352        C  0.49502185  0.06758134  0.65427864    -0.23200
C353        C  0.53387108  0.06672870  0.68652659     0.19700
F354        F  0.57721069  0.04886648  0.67310580    -0.13200
F355        F  0.56656575  0.08234721  0.76355513    -0.15500
F356        F  0.41257793  0.08981436  0.64020611    -0.15500
F357        F  0.40328333  0.12428562  0.73093560    -0.13200
C358        C  0.50355586  0.12446352  0.29866063     0.24800
C359        C  0.46511159  0.11954600  0.26674849    -0.23300
C360        C  0.42369637  0.09475304  0.28203249     0.19800
C361        C  0.42100727  0.07448689  0.32829039     0.24800
C362        C  0.46011250  0.07805016  0.36009173    -0.23200
C363        C  0.50110661  0.10415600  0.34490922     0.19700
F364        F  0.53962417  0.10892742  0.37416414    -0.13200
F365        F  0.54472303  0.14649447  0.28397393    -0.15500
F366        F  0.38012471  0.05118575  0.34166445    -0.15500
F367        F  0.38619929  0.08923168  0.25157979    -0.13200
C368        C  0.42645930  0.88822644  0.33746183     0.24800
C369        C  0.46319351  0.88248476  0.37181735    -0.23300
C370        C  0.50477205  0.85662980  0.35859149     0.19800
C371        C  0.51039173  0.83933513  0.31164693     0.24800
C372        C  0.47462640  0.84727586  0.27711493    -0.23200
C373        C  0.43238470  0.87112075  0.29059659     0.19700
F374        F  0.39696838  0.87833762  0.25798613    -0.13200
F375        F  0.38490186  0.91103894  0.34877854    -0.15500
F376        F  0.55175220  0.81668742  0.29928555    -0.15500
F377        F  0.54075723  0.84918923  0.39052735    -0.13200
C378        C  0.83165534  0.34377694  0.49240233     0.24800
C379        C  0.86974364  0.35559513  0.52309042    -0.23300
C380        C  0.88824116  0.31983004  0.55407629     0.19800
C381        C  0.87307820  0.27236624  0.55025807     0.24800
C382        C  0.83912324  0.25965438  0.51555118    -0.23200
C383        C  0.81674722  0.29611368  0.48834834     0.19700
F384        F  0.78286399  0.28529207  0.45524889    -0.13200
F385        F  0.81141582  0.37748176  0.46342071    -0.15500
F386        F  0.89259954  0.23854966  0.57965059    -0.15500
F387        F  0.92299468  0.33023374  0.58642181    -0.13200
C388        C  0.88191020  0.66687678  0.46965090     0.24800
C389        C  0.90890470  0.64991433  0.50914279    -0.23300
C390        C  0.92015986  0.68194430  0.54628910     0.19800
C391        C  0.90228206  0.72867218  0.54550513     0.24800
C392        C  0.87232693  0.74422737  0.50798914    -0.23200
C393        C  0.86337321  0.71349976  0.46941996     0.19700
F394        F  0.83689866  0.72879502  0.43141111    -0.13200
F395        F  0.87250243  0.63819923  0.43164405    -0.15500
F396        F  0.91298486  0.75833712  0.58236711    -0.15500
F397        F  0.94824892  0.66811220  0.58368618    -0.13200
C398        C  0.13232557  0.35264849  0.48993810     0.24800
C399        C  0.10185592  0.36977823  0.52644645    -0.23300
C400        C  0.08649791  0.33741811  0.56295340     0.19800
C401        C  0.09800670  0.28861684  0.56090796     0.24800
C402        C  0.12607801  0.27087945  0.52289868    -0.23200
C403        C  0.14444084  0.30371195  0.48828660     0.19700
F404        F  0.17176102  0.28784273  0.45105020    -0.13200
F405        F  0.14715138  0.38228743  0.45371824    -0.15500
F406        F  0.08108598  0.25857279  0.59586861    -0.15500
F407        F  0.05790676  0.35272040  0.59955645    -0.13200
C408        C  0.07088736  0.73013356  0.49231884     0.24800
C409        C  0.10925150  0.74310311  0.52255580    -0.23300
C410        C  0.13579726  0.70559847  0.54455985     0.19800
C411        C  0.12606956  0.65736572  0.53481815     0.24800
C412        C  0.08786017  0.64462303  0.50499247    -0.23200
C413        C  0.05976666  0.68157993  0.48455195     0.19700
F414        F  0.02124143  0.67066999  0.45700636    -0.13200
F415        F  0.04435337  0.76413684  0.46956557    -0.15500
F416        F  0.15196695  0.62288115  0.55760960    -0.15500
F417        F  0.17015035  0.71529502  0.57751655    -0.13200
C418        C  0.89084540  0.45915200  0.72430795     0.24800
C419        C  0.86118510  0.49701876  0.73965741    -0.23300
C420        C  0.84385484  0.52983122  0.70499946     0.19800
C421        C  0.85739235  0.52605000  0.65663682     0.24800
C422        C  0.88927305  0.49003023  0.64196902    -0.23200
C423        C  0.90523977  0.45607861  0.67603819     0.19700
F424        F  0.93584083  0.42061877  0.66277507    -0.13200
F425        F  0.90631745  0.42531543  0.75604204    -0.15500
F426        F  0.84265644  0.56026111  0.62494669    -0.15500
F427        F  0.81632912  0.56764271  0.71830758    -0.13200
C428        C  0.13419267  0.49069984  0.70901315     0.24800
C429        C  0.12469009  0.52375319  0.74560880    -0.23300
C430        C  0.09316229  0.56195432  0.73634077     0.19800
C431        C  0.07051630  0.56650996  0.69180973     0.24800
C432        C  0.07835946  0.53244408  0.65539150    -0.23200
C433        C  0.11124480  0.49490872  0.66427046     0.19700
F434        F  0.12006958  0.46125322  0.63039003    -0.13200
F435        F  0.16384131  0.45302433  0.71742409    -0.15500
F436        F  0.04029174  0.60407780  0.68486926    -0.15500
F437        F  0.08350869  0.59456810  0.77103871    -0.13200
C438        C  0.89388651  0.40260272  0.27438575     0.24800
C439        C  0.86150495  0.43687589  0.25601612    -0.23300
C440        C  0.84844931  0.47557294  0.28515256     0.19800
C441        C  0.86748772  0.48049199  0.33125542     0.24800
C442        C  0.90067868  0.44684908  0.34983306    -0.23200
C443        C  0.91283401  0.40718304  0.32107291     0.19700
F444        F  0.94386534  0.37344344  0.33751225    -0.13200
F445        F  0.90751060  0.36495339  0.24691763    -0.15500
F446        F  0.85316697  0.51872545  0.35758840    -0.15500
F447        F  0.81891807  0.51034090  0.26792003    -0.13200
C448        C  0.10128473  0.50903198  0.34032879     0.24800
C449        C  0.07348381  0.47072377  0.35890521    -0.23300
C450        C  0.06920407  0.42872603  0.33119692     0.19800
C451        C  0.08976177  0.42627578  0.28520663     0.24800
C452        C  0.11561127  0.46523381  0.26619760    -0.23200
C453        C  0.12208261  0.50623705  0.29437859     0.19700
F454        F  0.14722482  0.54431689  0.27663745    -0.13200
F455        F  0.10876266  0.54910236  0.36660626    -0.15500
F456        F  0.08423006  0.38586747  0.25898834    -0.15500
F457        F  0.04455298  0.39002143  0.34812654    -0.13200
C458        C  0.45130394  0.25181158  0.09772421     0.24800
C459        C  0.48649432  0.24081410  0.13212672    -0.23300
C460        C  0.52064892  0.27571663  0.14415782     0.19800
C461        C  0.51959171  0.32104238  0.12174988     0.24800
C462        C  0.48429223  0.33177051  0.08729379    -0.23200
C463        C  0.45021552  0.29674060  0.07553605     0.19700
F464        F  0.41456351  0.30661595  0.04386316    -0.13200
F465        F  0.41741693  0.21896460  0.08602068    -0.15500
F466        F  0.55367291  0.35396231  0.13262022    -0.15500
F467        F  0.55559875  0.26547409  0.17644861    -0.13200
C468        C  0.46338762  0.65068251  0.11530307     0.24800
C469        C  0.50962358  0.63677113  0.09936817    -0.23300
C470        C  0.54918024  0.66601277  0.11040766     0.19800
C471        C  0.54251633  0.70896529  0.13484093     0.24800
C472        C  0.49635493  0.72376104  0.14857316    -0.23200
C473        C  0.45684002  0.69413188  0.13938739     0.19700
F474        F  0.41178302  0.70837113  0.15159197    -0.13200
F475        F  0.42418803  0.62345765  0.10577311    -0.15500
F476        F  0.58107407  0.73735299  0.14355385    -0.15500
F477        F  0.59442783  0.65334859  0.09723971    -0.13200
C478        C  0.46086320  0.67085758  0.93907607     0.24800
C479        C  0.48578038  0.63442308  0.91464163    -0.23300
C480        C  0.51206335  0.64711981  0.87264464     0.19800
C481        C  0.51469623  0.69476833  0.85654011     0.24800
C482        C  0.49052088  0.73133444  0.88123418    -0.23200
C483        C  0.46267201  0.71857337  0.92224375     0.19700
F484        F  0.43741482  0.75239999  0.94644940    -0.13200
F485        F  0.43515637  0.66052420  0.97961296    -0.15500
F486        F  0.54369233  0.70543168  0.81838863    -0.15500
F487        F  0.53802475  0.61388025  0.84840274    -0.13200
C488        C  0.66870519  0.47792177  0.88760603     0.24800
C489        C  0.64734236  0.51843708  0.90890396    -0.23300
C490        C  0.67353116  0.56176278  0.91007195     0.19800
C491        C  0.72043443  0.56388978  0.89142811     0.24800
C492        C  0.74116275  0.52312059  0.87066650    -0.23200
C493        C  0.71493328  0.48045826  0.86861130     0.19700
F494        F  0.73504435  0.44042902  0.84971563    -0.13200
F495        F  0.64553610  0.43512642  0.88601932    -0.15500
F496        F  0.74558380  0.60552053  0.89363912    -0.15500
F497        F  0.65391785  0.60195999  0.92907117    -0.13200
C498        C  0.43443162  0.25323914  0.89860323     0.24800
C499        C  0.47199300  0.23857047  0.86796745    -0.23300
C500        C  0.50539467  0.27270942  0.85147537     0.19800
C501        C  0.50259113  0.32027203  0.86694481     0.24800
C502        C  0.46575518  0.33502370  0.89890814    -0.23200
C503        C  0.43092240  0.30105088  0.91343931     0.19700
F504        F  0.39437517  0.31349887  0.94337753    -0.13200
F505        F  0.40139378  0.22091509  0.91469990    -0.15500
F506        F  0.53675483  0.35160485  0.85121047    -0.15500
F507        F  0.54222171  0.25948102  0.82218243    -0.13200
C508        C  0.27383072  0.54965037  0.90772581     0.24800
C509        C  0.25724605  0.52130025  0.86946729    -0.23300
C510        C  0.28928269  0.48885318  0.84791868     0.19800
C511        C  0.33600132  0.48337010  0.86538706     0.24800
C512        C  0.35191885  0.51008668  0.90501149    -0.23200
C513        C  0.32054952  0.54382563  0.92554875     0.19700
F514        F  0.33487976  0.57074369  0.96328824    -0.13200
F515        F  0.24448955  0.58250073  0.92842762    -0.15500
F516        F  0.36442647  0.44912574  0.84570345    -0.15500
F517        F  0.27432037  0.45974548  0.81210752    -0.13200
C518        C  0.26651381  0.42648760  0.13576746     0.24800
C519        C  0.24504080  0.47188670  0.13955762    -0.23300
C520        C  0.26740147  0.51183714  0.11807512     0.19800
C521        C  0.31015122  0.50652686  0.09223056     0.24800
C522        C  0.33069206  0.46095226  0.08671461    -0.23200
C523        C  0.30895618  0.42097986  0.10908481     0.19700
F524        F  0.32888723  0.37676904  0.10514874    -0.13200
F525        F  0.24495921  0.38721322  0.15557639    -0.15500
F526        F  0.33023756  0.54559070  0.07059242    -0.15500
F527        F  0.24642723  0.55566022  0.12033688    -0.13200
C528        C  0.67154637  0.44700695  0.06582598     0.24800
C529        C  0.63573550  0.46707970  0.09514817    -0.23300
C530        C  0.64642273  0.47631179  0.14366185     0.19800
C531        C  0.69351318  0.47063240  0.16090193     0.24800
C532        C  0.73031995  0.45300391  0.13058736    -0.23200
C533        C  0.71761040  0.43882313  0.08362796     0.19700
F534        F  0.74989043  0.41710332  0.05432720    -0.13200
F535        F  0.66203195  0.43530262  0.01949129    -0.15500
F536        F  0.70329253  0.48515341  0.20625702    -0.15500
F537        F  0.61203099  0.49357199  0.17370423    -0.13200
loop_ 
_geom_bond_atom_site_label_1 
_geom_bond_atom_site_label_2 
_geom_bond_distance 
_geom_bond_site_symmetry_2 
_ccdc_geom_bond_type 
O1            C9   1.244       .  A
O1          Co21   1.968       .  S
O2           C10   1.275       .  A
O2          Co22   2.027   1_556  S
O3           C11   1.252       .  A
O3          Co23   1.996       .  S
O4           C12   1.263       .  A
O4          Co24   1.963       .  S
O5           C11   1.244       .  A
O5          Co22   1.959       .  S
O6           C12   1.270       .  A
O6          Co21   2.011   1_556  S
O7           C10   1.263       .  A
O7          Co24   1.970       .  S
O8            C9   1.253       .  A
O8          Co23   2.013       .  S
C9          C529   1.486       .  S
C10         C502   1.494       .  S
C11         C462   1.473       .  S
C12         C489   1.481       .  S
O13          C26   1.263       .  A
O13         Co21   2.000   1_556  S
O14          C27   1.271       .  A
O14         Co22   1.896       .  S
O15          C28   1.295       .  A
O15         Co23   2.068       .  S
O16          C29   1.267       .  A
O16         Co24   2.015       .  S
O17          C29   1.259       .  A
O17         Co22   1.991   1_556  S
O18          C28   1.272       .  A
O18         Co21   1.901       .  S
O19          C26   1.267       .  A
O19         Co24   2.013       .  S
O20          C27   1.296       .  A
O20         Co23   2.070       .  S
Co21         O25   1.928   1_554  S
Co22         O25   1.930   1_554  S
Co23         O25   2.253   1_554  S
Co24         O25   2.086       .  S
C26         C479   1.497       .  S
C27         C522   1.468       .  S
C28         C469   1.484       .  S
C29         C512   1.486       .  S
C30         C519   1.470       .  S
C30          C31   1.399       .  A
C30          C35   1.396       .  A
C31          C32   1.402       .  A
C31          H36   1.084       .  S
C32         C452   1.476       .  S
C32          C33   1.406       .  A
C33          C34   1.412       .  A
C33          H37   1.081       .  S
C34          C88   1.504       .  S
C34          C35   1.401       .  A
C35          H38   1.082       .  S
C39         C532   1.505       .  S
C39          C40   1.408       .  A
C39          C44   1.413       .  A
C40          C41   1.405       .  A
C40          H45   1.082       .  S
C41          C89   1.503       .  S
C41          C42   1.409       .  A
C42          C43   1.402       .  A
C42          H46   1.083       .  S
C43         C439   1.491       .  S
C43          C44   1.412       .  A
C44          H47   1.082       .  S
C48         C429   1.483       .  S
C48          C49   1.405       .  A
C48          C53   1.399       .  A
C49          C50   1.412       .  A
C49          H54   1.083       .  S
C50         C509   1.492       .  S
C50          C51   1.409       .  A
C51          C52   1.408       .  A
C51          H55   1.081       .  S
C52          C87   1.504       .  S
C52          C53   1.406       .  A
C53          H56   1.083       .  S
C57         C419   1.489       .  S
C57          C58   1.403       .  A
C57          C62   1.409       .  A
C58          C59   1.400       .  A
C58          H63   1.084       .  S
C59         C492   1.467       .  S
C59          C60   1.396       .  A
C60          C61   1.402       .  A
C60          H64   1.084       .  S
C61          C86   1.491       .  S
C61          C62   1.409       .  A
C62          H65   1.083       .  S
N66          C71   1.349   1_655  A
N66          C70   1.349       .  A
N66          H98   1.045       .  S
N67          C74   1.347       .  A
N67          C75   1.349   1_556  A
N68          C73   1.347   1_655  A
N68          C72   1.347       .  A
N68          H99   1.046       .  S
N69          C76   1.350   1_554  A
N69          C77   1.348       .  A
C70          C78   1.386       .  A
C70          C86   1.409       .  A
C71          C87   1.414       .  A
C71          C79   1.387       .  A
C72          C80   1.386       .  A
C72          C89   1.410       .  A
C73          C88   1.412       .  A
C73          C81   1.388       .  A
C74          C86   1.411       .  A
C74          C82   1.385       .  A
C75          C89   1.416       .  A
C75          C83   1.386       .  A
C76          C84   1.385       .  A
C76          C87   1.412       .  A
C77          C85   1.389       .  A
C77          C88   1.419       .  A
C78          C79   1.380   1_655  A
C78          H90   1.082       .  S
C79          H91   1.081       .  S
C80          C81   1.382   1_655  A
C80          H92   1.082       .  S
C81          H93   1.082       .  S
C82          C83   1.381   1_556  A
C82          H94   1.082       .  S
C83          H95   1.079       .  S
C84          C85   1.380   1_556  A
C84          H96   1.082       .  S
C85          H97   1.082       .  S
O100        C108   1.248       .  A
O100       Co120   1.952   1_455  S
O101        C109   1.262       .  A
O101       Co121   1.955       .  S
O102        C110   1.292       .  A
O102       Co122   2.105       .  S
O103        C111   1.267       .  A
O103       Co123   2.026       .  S
O104        C110   1.260       .  A
O104       Co121   1.902   1_455  S
O105        C111   1.249       .  A
O105       Co120   1.950       .  S
O106        C109   1.282       .  A
O106       Co123   2.041       .  S
O107        C108   1.272       .  A
O107       Co122   2.053       .  S
C108        C399   1.489       .  S
C109        C422   1.474       .  S
C110        C432   1.491       .  S
C111        C379   1.481       .  S
O112        C125   1.283       .  A
O112       Co120   2.054       .  S
O113        C126   1.285       .  A
O113       Co121   2.068   1_455  S
O114        C127   1.272       .  A
O114       Co122   1.971       .  S
O115        C128   1.257       .  A
O115       Co123   1.979       .  S
O116        C128   1.262       .  A
O116       Co121   1.999       .  S
O117        C127   1.278       .  A
O117       Co120   2.020   1_455  S
O118        C125   1.265       .  A
O118       Co123   1.956       .  S
O119        C126   1.278       .  A
O119       Co122   1.935       .  S
Co120       O124   1.985       .  S
Co121       O124   1.977       .  S
Co122       O124   2.053   1_455  S
Co123       O124   2.048       .  S
C125        C442   1.499       .  S
C126        C412   1.489       .  S
C127        C449   1.488       .  S
C128        C389   1.484       .  S
C129        C372   1.481       .  S
C129        C130   1.402       .  A
C129        C134   1.407       .  A
C130        C131   1.399       .  A
C130        H135   1.084       .  S
C131        C472   1.472       .  S
C131        C132   1.398       .  A
C132        C133   1.408       .  A
C132        H136   1.079       .  S
C133        C187   1.521       .  S
C133        C134   1.417       .  A
C134        H137   1.078       .  S
C138        C459   1.477       .  S
C138        C139   1.407       .  A
C138        C143   1.399       .  A
C139        C140   1.408       .  A
C139        H144   1.083       .  S
C140        C359   1.479       .  S
C140        C141   1.400       .  A
C141        C142   1.402       .  A
C141        H145   1.083       .  S
C142        C186   1.489       .  S
C142        C143   1.400       .  A
C143        H146   1.084       .  S
C147        C499   1.485       .  S
C147        C148   1.405       .  A
C147        C152   1.407       .  A
C148        C149   1.409       .  A
C148        H153   1.083       .  S
C149        C185   1.506       .  S
C149        C150   1.408       .  A
C150        C151   1.401       .  A
C150        H154   1.083       .  S
C151        C349   1.482       .  S
C151        C152   1.406       .  A
C152        H155   1.084       .  S
C156        C339   1.496       .  S
C156        C157   1.409       .  A
C156        C161   1.400       .  A
C157        C158   1.413       .  A
C157        H162   1.082       .  S
C158        C482   1.500       .  S
C158        C159   1.406       .  A
C159        C160   1.413       .  A
C159        H163   1.075       .  S
C160        C188   1.517       .  S
C160        C161   1.408       .  A
C161        H164   1.076       .  S
N165        C170   1.344       .  A
N165        C169   1.351   1_554  A
N165        H197   1.056       .  S
N166        C173   1.350   1_565  A
N166        C174   1.343       .  A
N167        C172   1.354       .  A
N167        C171   1.351   1_554  A
N167        H198   1.051       .  S
N168        C175   1.348   1_565  A
N168        C176   1.348       .  A
C169        C177   1.388       .  A
C169        C185   1.415       .  A
C170        C186   1.408       .  A
C170        C178   1.386       .  A
C171        C179   1.384       .  A
C171        C188   1.411       .  A
C172        C187   1.418       .  A
C172        C180   1.388       .  A
C173        C185   1.411       .  A
C173        C181   1.385       .  A
C174        C188   1.410       .  A
C174        C182   1.387       .  A
C175        C183   1.386       .  A
C175        C186   1.408       .  A
C176        C184   1.385       .  A
C176        C187   1.407       .  A
C177        C178   1.380   1_556  A
C177        H189   1.082       .  S
C178        H190   1.081       .  S
C179        C180   1.374   1_556  A
C179        H191   1.083       .  S
C180        H192   1.082       .  S
C181        C182   1.377   1_545  A
C181        H193   1.082       .  S
C182        H194   1.082       .  S
C183        C184   1.373   1_545  A
C183        H195   1.082       .  S
C184        H196   1.082       .  S
C199        C409   1.512       .  S
C199        C200   1.417       .  A
C199        C204   1.398       .  A
C200        C201   1.431       .  A
C200        H205   1.077       .  S
C201        C258   1.544       .  S
C201        C202   1.425       .  A
C202        C203   1.414       .  A
C202        H206   1.076       .  S
C203        C332   1.499       .  S
C203        C204   1.396       .  A
C204        H207   1.081       .  S
C208        C319   1.488       .  S
C208        C209   1.391       .  A
C208        C213   1.412       .  A
C209        C210   1.392       .  A
C209        H214   1.084       .  S
C210        C382   1.482       .  S
C210        C211   1.409       .  A
C211        C212   1.417       .  A
C211        H215   1.077       .  S
C212        C256   1.537       .  S
C212        C213   1.428       .  A
C213        H216   1.075       .  S
C217        C402   1.496       .  S
C217        C218   1.418       .  A
C217        C222   1.402       .  A
C218        C219   1.422       .  A
C218        H223   1.082       .  S
C219        C257   1.535       .  S
C219        C220   1.419       .  A
C220        C221   1.412       .  A
C220        H224   1.083       .  S
C221        C309   1.496       .  S
C221        C222   1.400       .  A
C222        H225   1.084       .  S
C226        C299   1.497       .  S
C226        C227   1.420       .  A
C226        C231   1.404       .  A
C227        C228   1.422       .  A
C227        H232   1.083       .  S
C228        C255   1.516       .  S
C228        C229   1.406       .  A
C229        C230   1.397       .  A
C229        H233   1.083       .  S
C230        C392   1.479       .  S
C230        C231   1.404       .  A
C231        H234   1.084       .  S
N235        C240   1.350       .  A
N235        C239   1.356   1_545  A
N235        H267   1.045       .  S
N236        C243   1.357       .  A
N236        C244   1.354   1_655  A
N237        C242   1.362       .  A
N237        C241   1.362   1_545  A
N237        H268   1.043       .  S
N238        C245   1.360       .  A
N238        C246   1.361   1_655  A
C239        C247   1.385       .  A
C239        C255   1.413       .  A
C240        C256   1.414       .  A
C240        C248   1.386       .  A
C241        C249   1.385       .  A
C241        C258   1.426       .  A
C242        C257   1.432       .  A
C242        C250   1.387       .  A
C243        C255   1.421       .  A
C243        C251   1.385       .  A
C244        C258   1.419       .  A
C244        C252   1.386       .  A
C245        C253   1.386       .  A
C245        C256   1.430       .  A
C246        C254   1.387       .  A
C246        C257   1.430       .  A
C247        C248   1.377   1_565  A
C247        H259   1.082       .  S
C248        H260   1.083       .  S
C249        C250   1.378   1_565  A
C249        H261   1.082       .  S
C250        H262   1.081       .  S
C251        C252   1.375   1_655  A
C251        H263   1.082       .  S
C252        H264   1.082       .  S
C253        C254   1.378   1_655  A
C253        H265   1.082       .  S
C254        H266   1.082       .  S
O269        C277   1.283       .  A
O269       Co289   2.027       .  S
O270        C278   1.271       .  A
O270       Co290   2.027   1_545  S
O271        C279   1.257       .  A
O271       Co291   1.987       .  S
O272        C280   1.277       .  A
O272       Co292   1.938       .  S
O273        C279   1.266       .  A
O273       Co290   2.016       .  S
O274        C280   1.289       .  A
O274       Co289   2.050   1_545  S
O275        C278   1.257       .  A
O275       Co292   1.977       .  S
O276        C277   1.283       .  A
O276       Co291   1.950       .  S
C277        C329   1.480       .  S
C278        C352   1.491       .  S
C279        C342   1.488       .  S
C280        C312   1.489       .  S
O281        C294   1.258       .  A
O281       Co289   2.008   1_545  S
O282        C295   1.259       .  A
O282       Co290   1.963       .  S
O283        C296   1.248       .  A
O283       Co291   1.965       .  S
O284        C297   1.276       .  A
O284       Co292   2.046       .  S
O285        C297   1.252       .  A
O285       Co290   1.951   1_545  S
O286        C296   1.257       .  A
O286       Co289   2.002       .  S
O287        C294   1.247       .  A
O287       Co292   1.961       .  S
O288        C295   1.283       .  A
O288       Co291   2.065       .  S
Co289       O293   2.217       .  S
Co290       O293   2.055       .  S
Co291       O293   1.977       .  S
Co292       O293   1.967   1_545  S
C294        C362   1.490       .  S
C295        C302   1.494       .  S
C296        C369   1.492       .  S
C297        C322   1.477       .  S
C298        C299   1.411       .  A
C298        C303   1.415       .  A
C298        F305   1.357       .  S
C299        C300   1.403       .  A
C300        C301   1.404       .  A
C300        F307   1.358       .  S
C301        C302   1.411       .  A
C301        F306   1.358       .  S
C302        C303   1.410       .  A
C303        F304   1.358       .  S
C308        C309   1.411       .  A
C308        C313   1.409       .  A
C308        F315   1.358       .  S
C309        C310   1.406       .  A
C310        C311   1.400       .  A
C310        F317   1.357       .  S
C311        C312   1.410       .  A
C311        F316   1.358       .  S
C312        C313   1.408       .  A
C313        F314   1.357       .  S
C318        C319   1.403       .  A
C318        C323   1.399       .  A
C318        F325   1.358       .  S
C319        C320   1.411       .  A
C320        C321   1.404       .  A
C320        F327   1.358       .  S
C321        C322   1.404       .  A
C321        F326   1.358       .  S
C322        C323   1.411       .  A
C323        F324   1.358       .  S
C328        C329   1.400       .  A
C328        C333   1.402       .  A
C328        F335   1.357       .  S
C329        C330   1.412       .  A
C330        C331   1.404       .  A
C330        F337   1.359       .  S
C331        C332   1.408       .  A
C331        F336   1.358       .  S
C332        C333   1.415       .  A
C333        F334   1.357       .  S
C338        C339   1.412       .  A
C338        C343   1.397       .  A
C338        F345   1.358       .  S
C339        C340   1.408       .  A
C340        C341   1.406       .  A
C340        F347   1.357       .  S
C341        C342   1.412       .  A
C341        F346   1.358       .  S
C342        C343   1.406       .  A
C343        F344   1.357       .  S
C348        C349   1.405       .  A
C348        C353   1.398       .  A
C348        F355   1.358       .  S
C349        C350   1.402       .  A
C350        C351   1.403       .  A
C350        F357   1.358       .  S
C351        C352   1.415       .  A
C351        F356   1.358       .  S
C352        C353   1.410       .  A
C353        F354   1.357       .  S
C358        C359   1.402       .  A
C358        C363   1.400       .  A
C358        F365   1.358       .  S
C359        C360   1.405       .  A
C360        C361   1.400       .  A
C360        F367   1.358       .  S
C361        C362   1.411       .  A
C361        F366   1.358       .  S
C362        C363   1.413       .  A
C363        F364   1.358       .  S
C368        C369   1.412       .  A
C368        C373   1.399       .  A
C368        F375   1.358       .  S
C369        C370   1.413       .  A
C370        C371   1.402       .  A
C370        F377   1.358       .  S
C371        C372   1.404       .  A
C371        F376   1.358       .  S
C372        C373   1.402       .  A
C373        F374   1.358       .  S
C378        C379   1.406       .  A
C378        C383   1.399       .  A
C378        F385   1.358       .  S
C379        C380   1.412       .  A
C380        C381   1.395       .  A
C380        F387   1.358       .  S
C381        C382   1.403       .  A
C381        F386   1.358       .  S
C382        C383   1.410       .  A
C383        F384   1.358       .  S
C388        C389   1.412       .  A
C388        C393   1.400       .  A
C388        F395   1.358       .  S
C389        C390   1.409       .  A
C390        C391   1.396       .  A
C390        F397   1.358       .  S
C391        C392   1.405       .  A
C391        F396   1.358       .  S
C392        C393   1.402       .  A
C393        F394   1.358       .  S
C398        C399   1.405       .  A
C398        C403   1.408       .  A
C398        F405   1.357       .  S
C399        C400   1.414       .  A
C400        C401   1.401       .  A
C400        F407   1.359       .  S
C401        C402   1.403       .  A
C401        F406   1.358       .  S
C402        C403   1.414       .  A
C403        F404   1.357       .  S
C408        C409   1.413       .  A
C408        C413   1.409       .  A
C408        F415   1.357       .  S
C409        C410   1.418       .  A
C410        C411   1.402       .  A
C410        F417   1.358       .  S
C411        C412   1.401       .  A
C411        F416   1.358       .  S
C412        C413   1.412       .  A
C413        F414   1.358       .  S
C418        C419   1.409       .  A
C418        C423   1.400       .  A
C418        F425   1.358       .  S
C419        C420   1.410       .  A
C420        C421   1.397       .  A
C420        F427   1.358       .  S
C421        C422   1.403       .  A
C421        F426   1.358       .  S
C422        C423   1.407       .  A
C423        F424   1.359       .  S
C428        C429   1.403       .  A
C428        C433   1.405       .  A
C428        F435   1.357       .  S
C429        C430   1.405       .  A
C430        C431   1.397       .  A
C430        F437   1.358       .  S
C431        C432   1.411       .  A
C431        F436   1.358       .  S
C432        C433   1.413       .  A
C433        F434   1.357       .  S
C438        C439   1.410       .  A
C438        C443   1.410       .  A
C438        F445   1.357       .  S
C439        C440   1.403       .  A
C440        C441   1.397       .  A
C440        F447   1.358       .  S
C441        C442   1.415       .  A
C441        F446   1.358       .  S
C442        C443   1.412       .  A
C443        F444   1.357       .  S
C448        C449   1.410       .  A
C448        C453   1.400       .  A
C448        F455   1.358       .  S
C449        C450   1.414       .  A
C450        C451   1.398       .  A
C450        F457   1.357       .  S
C451        C452   1.400       .  A
C451        F456   1.358       .  S
C452        C453   1.405       .  A
C453        F454   1.358       .  S
C458        C459   1.406       .  A
C458        C463   1.392       .  A
C458        F465   1.358       .  S
C459        C460   1.405       .  A
C460        C461   1.405       .  A
C460        F467   1.357       .  S
C461        C462   1.407       .  A
C461        F466   1.358       .  S
C462        C463   1.404       .  A
C463        F464   1.358       .  S
C468        C469   1.414       .  A
C468        C473   1.402       .  A
C468        F475   1.358       .  S
C469        C470   1.407       .  A
C470        C471   1.395       .  A
C470        F477   1.357       .  S
C471        C472   1.402       .  A
C471        F476   1.358       .  S
C472        C473   1.402       .  A
C473        F474   1.358       .  S
C478        C479   1.409       .  A
C478        C483   1.408       .  A
C478        F485   1.358       .  S
C479        C480   1.414       .  A
C480        C481   1.400       .  A
C480        F487   1.358       .  S
C481        C482   1.405       .  A
C481        F486   1.358       .  S
C482        C483   1.415       .  A
C483        F484   1.358       .  S
C488        C489   1.411       .  A
C488        C493   1.389       .  A
C488        F495   1.358       .  S
C489        C490   1.412       .  A
C490        C491   1.402       .  A
C490        F497   1.358       .  S
C491        C492   1.403       .  A
C491        F496   1.358       .  S
C492        C493   1.398       .  A
C493        F494   1.359       .  S
C498        C499   1.407       .  A
C498        C503   1.404       .  A
C498        F505   1.358       .  S
C499        C500   1.402       .  A
C500        C501   1.401       .  A
C500        F507   1.358       .  S
C501        C502   1.416       .  A
C501        F506   1.358       .  S
C502        C503   1.409       .  A
C503        F504   1.357       .  S
C508        C509   1.411       .  A
C508        C513   1.404       .  A
C508        F515   1.358       .  S
C509        C510   1.407       .  A
C510        C511   1.400       .  A
C510        F517   1.358       .  S
C511        C512   1.409       .  A
C511        F516   1.358       .  S
C512        C513   1.407       .  A
C513        F514   1.358       .  S
C518        C519   1.406       .  A
C518        C523   1.400       .  A
C518        F525   1.358       .  S
C519        C520   1.402       .  A
C520        C521   1.394       .  A
C520        F527   1.358       .  S
C521        C522   1.404       .  A
C521        F526   1.357       .  S
C522        C523   1.405       .  A
C523        F524   1.359       .  S
C528        C529   1.403       .  A
C528        C533   1.396       .  A
C528        F535   1.359       .  S
C529        C530   1.408       .  A
C530        C531   1.408       .  A
C530        F537   1.357       .  S
C531        C532   1.413       .  A
C531        F536   1.357       .  S
C532        C533   1.414       .  A
C533        F534   1.356       .  S
