geometry optimzed in LAMMPS
_audit_creation_date              2020-11-30 
_audit_creation_method            'lammps2cif' 
_symmetry_space_group_name_H-M    'P1' 
_symmetry_Int_Tables_number       1 
_symmetry_cell_setting            triclinic 
loop_ 
_symmetry_equiv_pos_as_xyz 
  x,y,z 
_cell_length_a                    55.56505961 
_cell_length_b                    55.60716650437049 
_cell_length_c                    55.06518712557907 
_cell_angle_alpha                 90.30339146793155 
_cell_angle_beta                  90.18345682209844 
_cell_angle_gamma                 125.34360757623998 
loop_ 
_atom_site_label 
_atom_site_type_symbol 
_atom_site_fract_x 
_atom_site_fract_y 
_atom_site_fract_z 
_atom_site_charge 
In1        In  0.65224412  0.55830984  0.86253715     1.36900
C2          C  0.66457210  0.58818686  0.90415117     0.79100
O3          O  0.60575578  0.54543648  0.86130598    -0.59400
O4          O  0.61265239  0.51208904  0.86755519    -0.50300
C5          C  0.65622990  0.57490493  0.81661295     0.71700
O6          O  0.65742175  0.59030635  0.83412291    -0.45100
C7          C  0.69268453  0.54726248  0.86462534     0.76400
O8          O  0.67217132  0.60080421  0.88380993    -0.57000
O9          O  0.66543483  0.52710963  0.86497221    -0.47100
O10         O  0.65021532  0.56054312  0.90310108    -0.53400
C11         C  0.59453112  0.51860316  0.86509263     0.86600
O12         O  0.65341502  0.55161399  0.82258140    -0.55300
O13         O  0.69939041  0.57306814  0.86303899    -0.58600
In14       In  0.92734637  0.53324933  0.86421448     1.36900
C15         C  0.94753357  0.56354491  0.90565746     0.79100
O16         O  0.89977985  0.55046029  0.86097118    -0.59400
O17         O  0.87784510  0.50459182  0.86745275    -0.50300
C18         C  0.94331420  0.54854978  0.81837040     0.71700
O19         O  0.95897158  0.56508815  0.83589586    -0.45100
C20         C  0.93971040  0.49401082  0.86860901     0.76400
O21         O  0.95696607  0.57568297  0.88525196    -0.57000
O22         O  0.91362167  0.48679960  0.86832664    -0.47100
O23         O  0.92873496  0.53602586  0.90482528    -0.53400
C24         C  0.87576760  0.52579980  0.86442087     0.86600
O25         O  0.91979312  0.52455172  0.82426250    -0.55300
O26         O  0.95953786  0.52124424  0.86686894    -0.58600
In27       In  0.28765446  0.92719048  0.96686542     1.36900
C28         C  0.23779918  0.87368604  0.96570102     0.79100
O29         O  0.29051793  0.92580942  0.92623163    -0.59400
O30         O  0.33029319  0.94713830  0.94674558    -0.50300
C31         C  0.28393337  0.97244065  0.96599074     0.71700
O32         O  0.26307290  0.94697191  0.95908009    -0.45100
C33         C  0.30610217  0.92253629  0.01011555     0.76400
O34         O  0.23914285  0.89595033  0.97288453    -0.57000
O35         O  0.31161664  0.91454268  0.99069259    -0.47100
O36         O  0.26187702  0.87859735  0.95887815    -0.53400
C37         C  0.31822220  0.94048373  0.92603936     0.86600
O38         O  0.30673129  0.97488851  0.97346383    -0.55300
O39         O  0.29246271  0.93415862  0.00733935    -0.58600
In40       In  0.97020188  0.61010057  0.97024332     1.36900
C41         C  0.02259938  0.66082747  0.96668112     0.79100
O42         O  0.96586513  0.60504807  0.01101510    -0.59400
O43         O  0.98705950  0.58877203  0.99248174    -0.50300
C44         C  0.92381020  0.61207740  0.97245093     0.71700
O45         O  0.94926640  0.63431421  0.96750567    -0.45100
C46         C  0.95663602  0.58009128  0.92861474     0.76400
O47         O  0.00026616  0.65919853  0.97402684    -0.57000
O48         O  0.94916243  0.56768733  0.94901284    -0.47100
O49         O  0.01824716  0.63663530  0.96096015    -0.53400
C50         C  0.97941972  0.59322141  0.01255823     0.86600
O51         O  0.92190196  0.58870020  0.97631352    -0.55300
O52         O  0.97159813  0.60777768  0.92949476    -0.58600
In53       In  0.31982452  0.90103778  0.07770444     1.36900
C54         C  0.31311293  0.91686344  0.03413752     0.79100
O55         O  0.36914735  0.92669231  0.07481938    -0.59400
O56         O  0.34332963  0.87972190  0.07329504    -0.50300
C57         C  0.32809631  0.92546944  0.12133362     0.71700
O58         O  0.33135876  0.93932107  0.10212882    -0.45100
C59         C  0.26638480  0.85174017  0.08204346     0.76400
O60         O  0.31061300  0.92747380  0.05350975    -0.57000
O61         O  0.28933528  0.85232442  0.08330437    -0.47100
O62         O  0.32041524  0.89945508  0.03705992    -0.53400
C63         C  0.36859182  0.90373947  0.07297418     0.86600
O64         O  0.32090879  0.89970209  0.11816382    -0.55300
O65         O  0.27058610  0.87624646  0.07859418    -0.58600
In66       In  0.00758402  0.58125149  0.07786843     1.36900
C67         C  0.98749756  0.58695984  0.03584222     0.79100
O68         O  0.03146320  0.62982997  0.08393103    -0.59400
O69         O  0.05684530  0.61303135  0.07716872    -0.50300
C70         C  0.98678484  0.57258961  0.12274309     0.71700
O71         O  0.97204455  0.57086966  0.10449257    -0.45100
C72         C  0.00450707  0.53253115  0.07148496     0.76400
O73         O  0.97786690  0.58867558  0.05602321    -0.57000
O74         O  0.02859933  0.55774204  0.07143663    -0.47100
O75         O  0.00608083  0.58098648  0.03721252    -0.53400
C76         C  0.05659044  0.63516007  0.08130441     0.86600
O77         O  0.01172371  0.57824711  0.11805358    -0.55300
O78         O  0.98175047  0.53202791  0.07476944    -0.58600
In79       In  0.34583578  0.25019837  0.86151007     1.36900
C80         C  0.31514142  0.23685230  0.90240536     0.79100
O81         O  0.33220729  0.20349816  0.86074652    -0.59400
O82         O  0.37710454  0.23765637  0.86851441    -0.50300
C83         C  0.32770943  0.24481897  0.81558774     0.71700
O84         O  0.31261396  0.24348213  0.83326057    -0.45100
C85         C  0.38576827  0.30804947  0.86381063     0.76400
O86         O  0.30289386  0.22857030  0.88177167    -0.57000
O87         O  0.39257630  0.29011118  0.86190806    -0.47100
O88         O  0.34290749  0.25272158  0.90202217    -0.53400
C89         C  0.35757677  0.21044129  0.86593434     0.86600
O90         O  0.35173395  0.24889038  0.82133930    -0.55300
O91         O  0.35848321  0.29658419  0.86454268    -0.58600
In92       In  0.36647326  0.97393720  0.86336410     1.36900
C93         C  0.33518151  0.95062479  0.90352698     0.79100
O94         O  0.37843497  0.94173896  0.86567944    -0.59400
O95         O  0.41319458  0.98757959  0.86500330    -0.50300
C96         C  0.35081911  0.96050495  0.81677384     0.71700
O97         O  0.33543454  0.94306676  0.83366807    -0.45100
C98         C  0.37463245  0.02553094  0.86957681     0.76400
O99         O  0.32324887  0.94478835  0.88275512    -0.57000
O100        O  0.39538865  0.02260935  0.87209030    -0.47100
O101        O  0.36294855  0.96722082  0.90358592    -0.53400
C102        C  0.40582346  0.96147866  0.86608497     0.86600
O103        O  0.37389100  0.98457479  0.82364097    -0.55300
O104        O  0.35014926  0.00246033  0.86344902    -0.58600
In105      In  0.26869802  0.20765000  0.96671567     1.36900
C106        C  0.26674428  0.15890207  0.96820209     0.79100
O107        O  0.27088976  0.20972390  0.92582812    -0.59400
O108        O  0.31090863  0.23633707  0.94574643    -0.50300
C109        C  0.22075754  0.20715627  0.96404956     0.71700
O110        O  0.21965899  0.18451119  0.96928760    -0.45100
C111        C  0.28623899  0.23470772  0.00996134     0.76400
O112        O  0.24491494  0.15873864  0.96156130    -0.57000
O113        O  0.29527906  0.24844435  0.99017755    -0.47100
O114        O  0.28925881  0.18372239  0.97457982    -0.53400
C115        C  0.29854019  0.22771663  0.92519545     0.86600
O116        O  0.24610761  0.22975376  0.95944259    -0.55300
O117        O  0.26943022  0.20707430  0.00771195    -0.58600
In118      In  0.69143627  0.63257659  0.96993613     1.36900
C119        C  0.73876906  0.63198297  0.97364889     0.79100
O120        O  0.68632511  0.62722647  0.01049277    -0.59400
O121        O  0.64750335  0.60601067  0.98876604    -0.50300
C122        C  0.69604487  0.68274616  0.96956619     0.71700
O123        O  0.71594845  0.68105146  0.97843933    -0.45100
C124        C  0.67283073  0.60420601  0.92739088     0.76400
O125        O  0.74011148  0.65387452  0.96550565    -0.57000
O126        O  0.66383189  0.59119850  0.94747244    -0.47100
O127        O  0.71354041  0.61076644  0.98028425    -0.53400
C128        C  0.65855453  0.61170573  0.00982873     0.86600
O129        O  0.67447837  0.65928113  0.96022362    -0.55300
O130        O  0.69043423  0.63185718  0.92896725    -0.58600
In131      In  0.02991448  0.30543715  0.07569341     1.36900
C132        C  0.01011909  0.27529825  0.03418509     0.79100
O133        O  0.99907707  0.31864721  0.06995872    -0.59400
O134        O  0.04529084  0.35233212  0.07160042    -0.50300
C135        C  0.01135539  0.29047723  0.12113997     0.71700
O136        O  0.99736234  0.27332434  0.10343235    -0.45100
C137        C  0.08059378  0.31087521  0.07712586     0.76400
O138        O  0.99925283  0.26345650  0.05444782    -0.57000
O139        O  0.07952432  0.33255096  0.07315154    -0.47100
O140        O  0.03027550  0.30251255  0.03516043    -0.53400
C141        C  0.01956827  0.34577776  0.06915182     0.86600
O142        O  0.03446660  0.31503751  0.11562933    -0.55300
O143        O  0.05608071  0.28683403  0.08087416    -0.58600
In144      In  0.30428928  0.27821838  0.07589953     1.36900
C145        C  0.29355447  0.24985135  0.03360976     0.79100
O146        O  0.25673039  0.26213130  0.07600069    -0.59400
O147        O  0.28956811  0.30812736  0.07223859    -0.50300
C148        C  0.30069215  0.26089530  0.12161173     0.71700
O149        O  0.29867853  0.24548076  0.10375701    -0.45100
C150        C  0.36195247  0.31857122  0.07407677     0.76400
O151        O  0.28493721  0.23646916  0.05360277    -0.57000
O152        O  0.34364354  0.32498495  0.07256413    -0.47100
O153        O  0.30808664  0.27746125  0.03537167    -0.53400
C154        C  0.26251684  0.28743742  0.07321854     0.86600
O155        O  0.30415822  0.28464139  0.11611346    -0.55300
O156        O  0.35091447  0.29156560  0.07659258    -0.58600
In157      In  0.58950621  0.86796624  0.07273649     1.36900
C158        C  0.62152315  0.88946256  0.03265730     0.79100
O159        O  0.60734985  0.84097022  0.07608524    -0.59400
O160        O  0.56171427  0.81862674  0.06772961    -0.50300
C161        C  0.60392876  0.88392828  0.11902507     0.71700
O162        O  0.62000296  0.90033595  0.10188729    -0.45100
C163        C  0.54858608  0.87775465  0.06668015     0.76400
O164        O  0.63293332  0.89763736  0.05358555    -0.57000
O165        O  0.54261475  0.85216745  0.06653960    -0.47100
O166        O  0.59386704  0.87158876  0.03230584    -0.53400
C167        C  0.58312072  0.81692800  0.07124137     0.86600
O168        O  0.58058277  0.85987332  0.11253318    -0.55300
O169        O  0.57542374  0.89840720  0.06990138    -0.58600
In170      In  0.60820675  0.58845637  0.07168194     1.36900
C171        C  0.64058344  0.60212326  0.03185298     0.79100
O172        O  0.59556613  0.54210515  0.06994825    -0.59400
O173        O  0.56129493  0.54842183  0.07013613    -0.50300
C174        C  0.62425325  0.59218511  0.11785135     0.71700
O175        O  0.63979891  0.59352999  0.10055913    -0.45100
C176        C  0.59903937  0.63015057  0.06790373     0.76400
O177        O  0.65167199  0.60822698  0.05292852    -0.57000
O178        O  0.57901111  0.60336970  0.06360288    -0.47100
O179        O  0.61290401  0.58811886  0.03116361    -0.53400
C180        C  0.56827517  0.53052489  0.06977910     0.86600
O181        O  0.60096493  0.58942356  0.11159578    -0.55300
O182        O  0.62352859  0.63559039  0.07425532    -0.58600
In183      In  0.67033250  0.91070635  0.97018719     1.36900
C184        C  0.72153807  0.96312071  0.96883548     0.79100
O185        O  0.66041578  0.90149324  0.93014395    -0.59400
O186        O  0.64914502  0.92754724  0.94808451    -0.50300
C187        C  0.67455840  0.86584445  0.97267198     0.71700
O188        O  0.69446199  0.89115540  0.98063156    -0.45100
C189        C  0.63894595  0.89852450  0.01040296     0.76400
O190        O  0.71795049  0.94045653  0.95965021    -0.57000
O191        O  0.62724411  0.89026542  0.98960920    -0.47100
O192        O  0.69922303  0.95900385  0.97908436    -0.53400
C193        C  0.65066866  0.91698514  0.92832875     0.86600
O194        O  0.65259652  0.86340893  0.96311497    -0.55300
O195        O  0.66669891  0.91392447  0.01059407    -0.58600
In196      In  0.98881868  0.22824232  0.97003414     1.36900
C197        C  0.93522251  0.17819905  0.96931762     0.79100
O198        O  0.98350594  0.23100833  0.01029519    -0.59400
O199        O  0.01164481  0.27085766  0.99110159    -0.50300
C200        C  0.03392434  0.22390606  0.97165220     0.71700
O201        O  0.00869365  0.20390178  0.97933008    -0.45100
C202        C  0.98326070  0.24771201  0.92762498     0.76400
O203        O  0.95778298  0.17959204  0.96307677    -0.57000
O204        O  0.97728456  0.25412705  0.94765048    -0.47100
O205        O  0.93995787  0.20222303  0.97624757    -0.53400
C206        C  0.00118846  0.25866214  0.01127871     0.86600
O207        O  0.03621905  0.24613031  0.96313746    -0.55300
O208        O  0.99360807  0.23275939  0.92933709    -0.58600
In209      In  0.95796363  0.26234835  0.86187537     1.36900
C210        C  0.97656147  0.25510821  0.90416503     0.79100
O211        O  0.98657651  0.31186828  0.86576274    -0.59400
O212        O  0.93991321  0.28921738  0.86444452    -0.50300
C213        C  0.97850148  0.26697992  0.81694787     0.71700
O214        O  0.99446416  0.27322334  0.83555955    -0.45100
C215        C  0.90542883  0.21084759  0.86190034     0.76400
O216        O  0.98300834  0.24933183  0.88402941    -0.57000
O217        O  0.90832507  0.23505398  0.86241431    -0.47100
O218        O  0.96211840  0.26602161  0.90259578    -0.53400
C219        C  0.96485806  0.31349539  0.86616788     0.86600
O220        O  0.95248371  0.25833881  0.82131288    -0.55300
O221        O  0.92918809  0.21288912  0.86110536    -0.58600
In222      In  0.63877435  0.94396240  0.86278261     1.36900
C223        C  0.69214240  0.99463863  0.86339977     0.79100
O224        O  0.63764617  0.94265863  0.90335862    -0.59400
O225        O  0.64616985  0.91469567  0.88489241    -0.50300
C226        C  0.58839186  0.93889691  0.86617064     0.71700
O227        O  0.61311350  0.96345964  0.86537986    -0.45100
C228        C  0.63324421  0.92276459  0.81803968     0.76400
O229        O  0.66881748  0.99347166  0.86333697    -0.57000
O230        O  0.62780973  0.90728753  0.83661636    -0.47100
O231        O  0.68835649  0.97001643  0.86275617    -0.53400
C232        C  0.64398897  0.92435353  0.90494956     0.86600
O233        O  0.58923171  0.91673732  0.86546584    -0.55300
O234        O  0.64170802  0.94879808  0.82231789    -0.58600
In235      In  0.93124438  0.53473066  0.57529664     1.36900
C236        C  0.95343628  0.56587045  0.53477009     0.79100
O237        O  0.96235020  0.52141192  0.57250072    -0.59400
O238        O  0.91612474  0.48790231  0.57044022    -0.50300
C239        C  0.94612527  0.54891567  0.62183935     0.71700
O240        O  0.96217020  0.56576534  0.60488669    -0.45100
C241        C  0.88015625  0.52829852  0.57262476     0.76400
O242        O  0.96156800  0.57774105  0.55557814    -0.57000
O243        O  0.88197012  0.50693158  0.56940547    -0.47100
O244        O  0.93531167  0.53825310  0.53483737    -0.53400
C245        C  0.94193179  0.49436513  0.57003467     0.86600
O246        O  0.92274574  0.52505963  0.61506605    -0.55300
O247        O  0.90411382  0.55254258  0.57761581    -0.58600
In248      In  0.65395841  0.55784281  0.57271342     1.36900
C249        C  0.66551588  0.58841138  0.53178612     0.79100
O250        O  0.70187516  0.57471084  0.57339574    -0.59400
O251        O  0.66961291  0.52867463  0.56880153    -0.50300
C252        C  0.65674294  0.57319861  0.61929967     0.71700
O253        O  0.65831948  0.58900917  0.60214322    -0.45100
C254        C  0.59658518  0.51584993  0.56899243     0.76400
O255        O  0.67279779  0.60060877  0.55248587    -0.57000
O256        O  0.61582797  0.51074674  0.56711534    -0.47100
O257        O  0.65163846  0.56079976  0.53214128    -0.53400
C258        C  0.69654967  0.54955929  0.57055998     0.86600
O259        O  0.65381290  0.54995990  0.61268706    -0.55300
O260        O  0.60651359  0.54249844  0.57257291    -0.58600
In261      In  0.29047131  0.93088618  0.46826754     1.36900
C262        C  0.23897812  0.87882509  0.46972587     0.79100
O263        O  0.29662247  0.93769835  0.42786475    -0.59400
O264        O  0.31132997  0.91425429  0.44488481    -0.50300
C265        C  0.28755689  0.97669755  0.46868257     0.71700
O266        O  0.26672712  0.95165223  0.47602032    -0.45100
C267        C  0.32168469  0.94349187  0.50921067     0.76400
O268        O  0.24161504  0.90152612  0.46207523    -0.57000
O269        O  0.33366697  0.95215120  0.48870164    -0.47100
O270        O  0.26258526  0.88254839  0.47654917    -0.53400
C271        C  0.30780005  0.92361329  0.42535640     0.86600
O272        O  0.30996774  0.97848462  0.46126874    -0.55300
O273        O  0.29395260  0.92779414  0.50867893    -0.58600
In274      In  0.97333417  0.61275078  0.47117331     1.36900
C275        C  0.02470819  0.66484940  0.47107344     0.79100
O276        O  0.97761559  0.61042760  0.51175922    -0.59400
O277        O  0.95423550  0.57043313  0.49153010    -0.50300
C278        C  0.92685476  0.61472123  0.47328549     0.71700
O279        O  0.95247056  0.63644140  0.47893276    -0.45100
C280        C  0.97994155  0.59431691  0.42832377     0.76400
O281        O  0.00168276  0.66075932  0.46221690    -0.57000
O282        O  0.99060654  0.59237183  0.44783372    -0.47100
O283        O  0.02154246  0.64247974  0.48024370    -0.53400
C284        C  0.96252080  0.58270938  0.51213745     0.86600
O285        O  0.92484829  0.59192402  0.46654147    -0.55300
O286        O  0.96463284  0.60416582  0.43086228    -0.58600
In287      In  0.31961569  0.89931111  0.35794425     1.36900
C288        C  0.26578238  0.84980251  0.35627281     0.79100
O289        O  0.32105775  0.89910612  0.39873701    -0.59400
O290        O  0.31192843  0.92726950  0.38196789    -0.50300
C291        C  0.36827205  0.90097244  0.35992128     0.71700
O292        O  0.34283480  0.87727340  0.35857218    -0.45100
C293        C  0.32532372  0.92256601  0.31437121     0.76400
O294        O  0.28853898  0.85005316  0.35793153    -0.57000
O295        O  0.33308323  0.93785338  0.33358771    -0.47100
O296        O  0.27041982  0.87477088  0.35502778    -0.53400
C297        C  0.31431545  0.91698354  0.40146562     0.86600
O298        O  0.36913264  0.92414185  0.36021674    -0.55300
O299        O  0.31490607  0.89583077  0.31743617    -0.58600
In300      In  0.00322956  0.58060262  0.36112408     1.36900
C301        C  0.98639083  0.58743972  0.40443885     0.79100
O302        O  0.97639925  0.53126487  0.36491842    -0.59400
O303        O  0.02290750  0.55509520  0.36071217    -0.50300
C304        C  0.98070265  0.57430764  0.31683418     0.71700
O305        O  0.96530514  0.56795083  0.33567961    -0.45100
C306        C  0.05341365  0.63387699  0.36001717     0.76400
O307        O  0.97614137  0.58975185  0.38478198    -0.57000
O308        O  0.05267716  0.61092039  0.36236330    -0.47100
O309        O  0.00397216  0.58026266  0.40192905    -0.53400
C310        C  0.99855449  0.53046184  0.36326873     0.86600
O311        O  0.00715581  0.58389078  0.32067152    -0.55300
O312        O  0.02865658  0.62965785  0.35791485    -0.58600
In313      In  0.69391281  0.63404447  0.46699975     1.36900
C314        C  0.74213510  0.63476903  0.46561323     0.79100
O315        O  0.69207742  0.63250110  0.50801899    -0.59400
O316        O  0.66479944  0.59234617  0.48845987    -0.50300
C317        C  0.69501171  0.68248184  0.46821739     0.71700
O318        O  0.71695913  0.68286001  0.46174396    -0.45100
C319        C  0.66494696  0.61406289  0.42473210     0.76400
O320        O  0.74220643  0.65570594  0.47456064    -0.57000
O321        O  0.65260036  0.60414596  0.44498289    -0.47100
O322        O  0.71780230  0.61393726  0.45678384    -0.53400
C323        C  0.67392356  0.60489301  0.50891059     0.86600
O324        O  0.67289467  0.65768720  0.47467500    -0.55300
O325        O  0.69240534  0.63339942  0.42594458    -0.58600
In326      In  0.98589517  0.22686319  0.46724985     1.36900
C327        C  0.93185489  0.17773382  0.46552934     0.79100
O328        O  0.99253964  0.23166855  0.50789684    -0.59400
O329        O  0.97413762  0.25165709  0.49066927    -0.50300
C330        C  0.03062344  0.22240343  0.46502322     0.71700
O331        O  0.00498630  0.20179212  0.45823342    -0.45100
C332        C  0.99822248  0.25789620  0.42698141     0.76400
O333        O  0.95336903  0.17862364  0.47417045    -0.57000
O334        O  0.00664294  0.26997498  0.44765969    -0.47100
O335        O  0.93783374  0.20184038  0.45770752    -0.53400
C336        C  0.98166461  0.24607771  0.51026982     0.86600
O337        O  0.03341352  0.24514066  0.47305881    -0.55300
O338        O  0.98302778  0.23018771  0.42704167    -0.58600
In339      In  0.95820199  0.26092567  0.57642370     1.36900
C340        C  0.97595727  0.25382027  0.53394729     0.79100
O341        O  0.93339329  0.21183704  0.57973677    -0.59400
O342        O  0.90872685  0.22960280  0.57417028    -0.50300
C343        C  0.98002018  0.26866171  0.62127014     0.71700
O344        O  0.99501411  0.27218469  0.60272025    -0.45100
C345        C  0.96213396  0.31046693  0.57104067     0.76400
O346        O  0.98481531  0.25018852  0.55381855    -0.57000
O347        O  0.93789051  0.28578707  0.57401600    -0.47100
O348        O  0.95994083  0.26290879  0.53593785    -0.53400
C349        C  0.90847003  0.20696321  0.57678526     0.86600
O350        O  0.95447885  0.26164618  0.61684935    -0.55300
O351        O  0.98462881  0.31006650  0.57104084    -0.58600
In352      In  0.64113356  0.94259474  0.57871667     1.36900
C353        C  0.64433050  0.92280249  0.53573853     0.79100
O354        O  0.59166460  0.91581878  0.57659526    -0.59400
O355        O  0.61604679  0.96268316  0.57672959    -0.50300
C356        C  0.63670604  0.92280369  0.62349347     0.71700
O357        O  0.63026050  0.90652698  0.60504265    -0.45100
C358        C  0.69520161  0.99192160  0.57806927     0.76400
O359        O  0.64842838  0.91394046  0.55535371    -0.57000
O360        O  0.67251781  0.99192627  0.57801921    -0.47100
O361        O  0.63695457  0.94021865  0.53823567    -0.53400
C362        C  0.59116236  0.93819095  0.57587729     0.86600
O363        O  0.64551226  0.94883913  0.61903578    -0.55300
O364        O  0.69036603  0.96684289  0.57868119    -0.58600
In365      In  0.66826563  0.91055035  0.46868152     1.36900
C366        C  0.71772978  0.96434560  0.46902257     0.79100
O367        O  0.66625484  0.91518472  0.42823625    -0.59400
O368        O  0.62594425  0.88903700  0.44728566    -0.50300
C369        C  0.67240165  0.86552604  0.46748849     0.71700
O370        O  0.69302015  0.89099231  0.46074220    -0.45100
C371        C  0.65017820  0.91571718  0.51181475     0.76400
O372        O  0.71725382  0.94187604  0.47345291    -0.57000
O373        O  0.64416166  0.92306142  0.49233994    -0.47100
O374        O  0.69307507  0.95941246  0.46417873    -0.53400
C375        C  0.63854550  0.89860674  0.42709517     0.86600
O376        O  0.64964085  0.86296861  0.47508201    -0.55300
O377        O  0.66371513  0.90396529  0.50913672    -0.58600
In378      In  0.59231970  0.86844400  0.36255131     1.36900
C379        C  0.62221845  0.88966367  0.40403236     0.79100
O380        O  0.57685017  0.89763578  0.36643920    -0.59400
O381        O  0.54468348  0.85110917  0.36432335    -0.50300
C382        C  0.60509548  0.88313785  0.31623800     0.71700
O383        O  0.62163137  0.90033513  0.33319910    -0.45100
C384        C  0.58933759  0.81931384  0.36361267     0.76400
O385        O  0.63435222  0.89989890  0.38369737    -0.57000
O386        O  0.56780426  0.82001062  0.36941346    -0.47100
O387        O  0.59491015  0.86987451  0.40304985    -0.53400
C388        C  0.54992215  0.87635173  0.36600419     0.86600
O389        O  0.58243214  0.85891425  0.32297715    -0.55300
O390        O  0.61213394  0.84349517  0.35690357    -0.58600
In391      In  0.61631596  0.59240772  0.36127830     1.36900
C392        C  0.64817508  0.60499820  0.40180378     0.79100
O393        O  0.63163674  0.63944718  0.36492416    -0.59400
O394        O  0.58541334  0.60604144  0.36395998    -0.50300
C395        C  0.63170717  0.59725217  0.31478364     0.71700
O396        O  0.64650546  0.59617584  0.33162628    -0.45100
C397        C  0.57512351  0.53475395  0.36367254     0.76400
O398        O  0.66000869  0.61362853  0.38120423    -0.57000
O399        O  0.57013176  0.55363460  0.36852912    -0.47100
O400        O  0.62042249  0.58900471  0.40141118    -0.53400
C401        C  0.60592522  0.63312477  0.36561254     0.86600
O402        O  0.60973271  0.59649071  0.32169298    -0.55300
O403        O  0.60132464  0.54516321  0.35779815    -0.58600
In404      In  0.34382809  0.24601165  0.57357983     1.36900
C405        C  0.31196206  0.23229826  0.53303154     0.79100
O406        O  0.35857518  0.29323046  0.57054444    -0.59400
O407        O  0.39119198  0.28467434  0.57178744    -0.50300
C408        C  0.32586759  0.24176369  0.61931407     0.71700
O409        O  0.31246671  0.24337918  0.60160128    -0.45100
C410        C  0.35562364  0.20607832  0.57046965     0.76400
O411        O  0.30029234  0.22363646  0.55364830    -0.57000
O412        O  0.37528696  0.23334057  0.56911414    -0.47100
O413        O  0.33972529  0.24818812  0.53320545    -0.53400
C414        C  0.38560538  0.30354262  0.57021727     0.86600
O415        O  0.34821595  0.24257339  0.61371747    -0.55300
O416        O  0.32976825  0.19898481  0.57312951    -0.58600
In417      In  0.36863017  0.97203443  0.57370902     1.36900
C418        C  0.33852265  0.95212719  0.53205177     0.79100
O419        O  0.35308698  0.00112832  0.57605177    -0.59400
O420        O  0.39844113  0.02117565  0.56850583    -0.50300
C421        C  0.35120020  0.95688213  0.61961893     0.71700
O422        O  0.33498672  0.94147706  0.60186883    -0.45100
C423        C  0.40774581  0.95926657  0.57054675     0.76400
O424        O  0.32639145  0.94266709  0.55246369    -0.57000
O425        O  0.41516678  0.98524295  0.57326409    -0.47100
O426        O  0.36612858  0.97062562  0.53289108    -0.53400
C427        C  0.37798244  0.02439232  0.57157707     0.86600
O428        O  0.37608707  0.97939679  0.61392543    -0.55300
O429        O  0.38033620  0.93968722  0.56934218    -0.58600
In430      In  0.26413716  0.20582582  0.46914672     1.36900
C431        C  0.26154312  0.15696055  0.46590840     0.79100
O432        O  0.26353392  0.20682808  0.42820102    -0.59400
O433        O  0.29331580  0.24682520  0.44742868    -0.50300
C434        C  0.21857368  0.20882583  0.47354423     0.71700
O435        O  0.21600356  0.18642247  0.46486651    -0.45100
C436        C  0.29475680  0.22385203  0.51046605     0.76400
O437        O  0.24012593  0.15682111  0.47366527    -0.57000
O438        O  0.30656412  0.23406967  0.49009534    -0.47100
O439        O  0.28353309  0.18160185  0.45908932    -0.53400
C440        C  0.28283975  0.23425296  0.42715864     0.86600
O441        O  0.24411381  0.22929000  0.48059191    -0.55300
O442        O  0.26716463  0.20517272  0.50982345    -0.58600
In443      In  0.02688866  0.30410086  0.36323745     1.36900
C444        C  0.00665741  0.27457336  0.40440599     0.79100
O445        O  0.05274660  0.28507942  0.35984475    -0.59400
O446        O  0.07603007  0.33068235  0.36884451    -0.50300
C447        C  0.01001492  0.28825806  0.31731479     0.71700
O448        O  0.99401867  0.27253212  0.33478084    -0.45100
C449        C  0.01734794  0.34536027  0.36634666     0.76400
O450        O  0.99785040  0.26215667  0.38385697    -0.57000
O451        O  0.04292688  0.35136738  0.36482190    -0.47100
O452        O  0.02442597  0.30225283  0.40394017    -0.53400
C453        C  0.07703352  0.30888896  0.36503173     0.86600
O454        O  0.03424749  0.31168757  0.32333038    -0.55300
O455        O  0.99658755  0.31826612  0.36681301    -0.58600
In456      In  0.30421695  0.28202161  0.36396878     1.36900
C457        C  0.29146150  0.25071854  0.40437522     0.79100
O458        O  0.35174783  0.29833121  0.36797261    -0.59400
O459        O  0.34192658  0.32979981  0.36347669    -0.50300
C460        C  0.30152495  0.26494878  0.31805689     0.71700
O461        O  0.30227331  0.25105783  0.33573474    -0.45100
C462        C  0.26274432  0.29145987  0.36821701     0.76400
O463        O  0.28189724  0.23863174  0.38379834    -0.57000
O464        O  0.28956435  0.31127096  0.37244360    -0.47100
O465        O  0.30820546  0.27843771  0.40407682    -0.53400
C466        C  0.36137150  0.32508787  0.36622517     0.86600
O467        O  0.30196224  0.28709490  0.32382121    -0.55300
O468        O  0.25702714  0.26688263  0.36183070    -0.58600
C469        C  0.19724946  0.30362126  0.37145848     0.18500
C470        C  0.17281064  0.28599300  0.38647548    -0.10600
C471        C  0.14914078  0.28842465  0.38566410    -0.11400
C472        C  0.14986556  0.30850264  0.36985651     0.20100
C473        C  0.17442400  0.32632415  0.35504315    -0.13500
C474        C  0.19807615  0.32389269  0.35585161    -0.11800
C475        C  0.12510753  0.31025968  0.36833087     0.01000
C476        C  0.10371809  0.31064484  0.36677388    -0.31800
C477        C  0.22093470  0.30012076  0.37132328     0.02400
C478        C  0.24029944  0.29651608  0.37029517    -0.33400
H479        H  0.17191410  0.27018139  0.39855528     0.13500
H480        H  0.13019415  0.27447505  0.39715637     0.13300
H481        H  0.17513579  0.34183588  0.34271591     0.13200
H482        H  0.21682664  0.33754304  0.34410257     0.12200
C483        C  0.38228573  0.09974898  0.56739999     0.18500
C484        C  0.36747691  0.10233275  0.54807208    -0.10600
C485        C  0.36353710  0.12499347  0.54813152    -0.11400
C486        C  0.37434264  0.14514681  0.56753858     0.20100
C487        C  0.38992261  0.14308814  0.58652310    -0.13500
C488        C  0.39386625  0.12040928  0.58646147    -0.11800
C489        C  0.36822008  0.16700749  0.56845122     0.01000
C490        C  0.36234930  0.18475733  0.56928553    -0.31800
C491        C  0.38361023  0.07469899  0.56852731     0.02400
C492        C  0.38234685  0.05237473  0.56988019    -0.33400
H493        H  0.35831234  0.08639855  0.53329030     0.13500
H494        H  0.35146325  0.12636908  0.53336221     0.13300
H495        H  0.39839082  0.15855780  0.60162032     0.13200
H496        H  0.40524340  0.11853508  0.60153944     0.12200
C497        C  0.44759234  0.39578736  0.36781454     0.18500
C498        C  0.46571189  0.40310667  0.34752051    -0.10600
C499        C  0.49376125  0.42986886  0.34704679    -0.11400
C500        C  0.50379047  0.44939794  0.36687669     0.20100
C501        C  0.48595950  0.44169228  0.38739705    -0.13500
C502        C  0.45795113  0.41498173  0.38786482    -0.11800
C503        C  0.53113202  0.47833067  0.36551711     0.01000
C504        C  0.55228411  0.50368430  0.36459664    -0.31800
C505        C  0.41778401  0.36955057  0.36755712     0.02400
C506        C  0.39225064  0.34866566  0.36714214    -0.33400
H507        H  0.45788503  0.38849698  0.33186381     0.13500
H508        H  0.50725395  0.43566986  0.33100728     0.13300
H509        H  0.49337758  0.45669725  0.40275892     0.13200
H510        H  0.44410277  0.40963841  0.40360297     0.12200
C511        C  0.58971012  0.74644729  0.36759932     0.18500
C512        C  0.60934363  0.74678106  0.38386604    -0.10600
C513        C  0.61141937  0.72290666  0.38462234    -0.11400
C514        C  0.59384086  0.69861847  0.36910848     0.20100
C515        C  0.57399213  0.69816689  0.35303479    -0.13500
C516        C  0.57191787  0.72203297  0.35228240    -0.11800
C517        C  0.59701357  0.67472825  0.36893056     0.01000
C518        C  0.60052739  0.65531128  0.36781671    -0.31800
C519        C  0.58842917  0.77148226  0.36615734     0.02400
C520        C  0.58825025  0.79298692  0.36486118    -0.33400
H521        H  0.62326575  0.76562008  0.39572744     0.13500
H522        H  0.62694117  0.72354015  0.39702926     0.13300
H523        H  0.56040545  0.67954808  0.34088580     0.13200
H524        H  0.55673133  0.72160661  0.33959967     0.12200
C525        C  0.51745744  0.93725462  0.57035046     0.18500
C526        C  0.51749464  0.95570750  0.55309858    -0.10600
C527        C  0.49419462  0.95871219  0.55214471    -0.11400
C528        C  0.47071902  0.94325860  0.56844222     0.20100
C529        C  0.47039687  0.92435470  0.58538526    -0.13500
C530        C  0.49371312  0.92135351  0.58634287    -0.11800
C531        C  0.44767790  0.94779232  0.56846857     0.01000
C532        C  0.42908458  0.95255753  0.56912498    -0.31800
C533        C  0.54241088  0.93576105  0.57230715     0.02400
C534        C  0.56423984  0.93609146  0.57402493    -0.33400
H535        H  0.53577420  0.96816232  0.54067799     0.13500
H536        H  0.49472539  0.97343714  0.53900623     0.13300
H537        H  0.45239351  0.91234205  0.59811354     0.13200
H538        H  0.49348080  0.90707698  0.59978945     0.12200
C539        C  0.77765212  0.06877559  0.57670911     0.18500
C540        C  0.79208291  0.08094588  0.55463905    -0.10600
C541        C  0.81932506  0.10852721  0.55437123    -0.11400
C542        C  0.83218374  0.12400850  0.57617834     0.20100
C543        C  0.81801217  0.11155130  0.59825471    -0.17100
C544        C  0.79080824  0.08400605  0.59852164    -0.11800
C545        C  0.85936936  0.15306934  0.57596583     0.01000
C546        C  0.88177842  0.17768944  0.57629780    -0.31800
C547        C  0.74890987  0.04120750  0.57697956     0.02400
C548        C  0.72446954  0.01857823  0.57745625    -0.33400
H549        H  0.78209410  0.06934335  0.53766359     0.13500
H550        H  0.83011089  0.11794299  0.53719159     0.13300
H551        H  0.82777346  0.12332805  0.61520914     0.13200
H552        H  0.77983714  0.07479663  0.61567773     0.12200
C553        C  0.14924222  0.21500323  0.47183549     0.18500
C554        C  0.12097946  0.19055621  0.47778422    -0.10600
C555        C  0.09669373  0.19170227  0.47490082    -0.11400
C556        C  0.10060267  0.21728740  0.46605537     0.20100
C557        C  0.12885696  0.24174439  0.46001433    -0.13500
C558        C  0.15317376  0.24059614  0.46290147    -0.11800
C559        C  0.07574790  0.21876667  0.46416527     0.01000
C560        C  0.05494094  0.22014533  0.46395101    -0.31800
C561        C  0.17396303  0.21331895  0.47402820     0.02400
C562        C  0.19433915  0.21124955  0.47462117    -0.33400
H563        H  0.11772991  0.17062592  0.48456545     0.13500
H564        H  0.07491928  0.17272971  0.47968850     0.13300
H565        H  0.13207428  0.26165393  0.45321133     0.13200
H566        H  0.17495317  0.25955336  0.45810268     0.12200
C567        C  0.84958070  0.10104382  0.46635421     0.18500
C568        C  0.83956548  0.08603820  0.48843940    -0.10600
C569        C  0.81213840  0.05878738  0.48954851    -0.11400
C570        C  0.79467257  0.04648730  0.46856157     0.20100
C571        C  0.80449965  0.06169460  0.44655812    -0.13500
C572        C  0.83193535  0.08894093  0.44544595    -0.11800
C573        C  0.76716336  0.01782782  0.46933761     0.01000
C574        C  0.74447200  0.99347883  0.46938426    -0.31800
C575        C  0.87823297  0.12851149  0.46513585     0.02400
C576        C  0.90260168  0.15116939  0.46487500    -0.33400
H577        H  0.85307238  0.09525296  0.50470678     0.13500
H578        H  0.80473140  0.04717921  0.50664713     0.13300
H579        H  0.79113516  0.05231887  0.43023515     0.13200
H580        H  0.83950439  0.10038820  0.42828816     0.12200
C581        C  0.68226908  0.79839349  0.46552060     0.18500
C582        C  0.66663559  0.77477370  0.44905480    -0.10600
C583        C  0.67054700  0.75206892  0.44933231    -0.11400
C584        C  0.69011312  0.75290320  0.46605239     0.20100
C585        C  0.70598595  0.77671401  0.48230091    -0.13500
C586        C  0.70208338  0.79940260  0.48201909    -0.11800
C587        C  0.69327288  0.72896010  0.46697537     0.01000
C588        C  0.69483202  0.70821387  0.46777858    -0.31800
C589        C  0.67782559  0.82144739  0.46579255     0.02400
C590        C  0.67482502  0.84123641  0.46655349    -0.33400
H591        H  0.65128422  0.77378437  0.43620284     0.13500
H592        H  0.65812625  0.73374740  0.43670234     0.13300
H593        H  0.72114082  0.77759373  0.49531642     0.13200
H594        H  0.71431655  0.81759295  0.49480008     0.12200
C595        C  0.00537151  0.41107131  0.36606000     0.18500
C596        C  0.02461917  0.43605274  0.35208795    -0.10600
C597        C  0.02155641  0.45928769  0.35148013    -0.11400
C598        C  0.99923792  0.45766495  0.36482275     0.20100
C599        C  0.97991255  0.43263927  0.37873328    -0.13500
C600        C  0.98297627  0.40937765  0.37933866    -0.11800
C601        C  0.99674671  0.48202515  0.36458628     0.01000
C602        C  0.99646784  0.50353485  0.36415440    -0.31800
C603        C  0.00877216  0.38732682  0.36681323     0.02400
C604        C  0.01228144  0.36787504  0.36701711    -0.33400
H605        H  0.04202067  0.43760146  0.34176100     0.13500
H606        H  0.03667904  0.47857529  0.34071826     0.13300
H607        H  0.96263845  0.43119209  0.38917262     0.13200
H608        H  0.96798362  0.39015729  0.39021075     0.12200
C609        C  0.43817782  0.89540924  0.36321862     0.18500
C610        C  0.44050109  0.87904743  0.34511873    -0.10600
C611        C  0.46311245  0.87503190  0.34627414    -0.11400
C612        C  0.48347636  0.88733077  0.36554640     0.20100
C613        C  0.48104316  0.90352292  0.38371959    -0.13500
C614        C  0.45843107  0.90753904  0.38256439    -0.11800
C615        C  0.50703515  0.88362879  0.36651764     0.01000
C616        C  0.52676787  0.88051142  0.36678665    -0.31800
C617        C  0.41472906  0.89929228  0.36210166     0.02400
C618        C  0.39420685  0.90119918  0.36111182    -0.33400
H619        H  0.42487294  0.86943798  0.33014509     0.13500
H620        H  0.46476689  0.86243708  0.33213053     0.13300
H621        H  0.49665062  0.91309237  0.39870766     0.13200
H622        H  0.45675422  0.92009670  0.39672429     0.12200
C623        C  0.13073219  0.71588933  0.35879673     0.18500
C624        C  0.15284223  0.72094706  0.34294529    -0.10600
C625        C  0.17972532  0.74871504  0.34212157    -0.11400
C626        C  0.18462854  0.77157400  0.35713554     0.20100
C627        C  0.16249938  0.76658987  0.37298107    -0.13500
C628        C  0.13555578  0.73876589  0.37379991    -0.11800
C629        C  0.21263801  0.79985373  0.35656188     0.01000
C630        C  0.23667926  0.82294978  0.35615321    -0.31800
C631        C  0.10324447  0.68714957  0.35962362     0.02400
C632        C  0.08049154  0.66281542  0.35985129    -0.33400
H633        H  0.14933041  0.70340143  0.33129293     0.13500
H634        H  0.19673146  0.75232242  0.32987600     0.13300
H635        H  0.16612203  0.78410759  0.38473629     0.13200
H636        H  0.11858984  0.73506940  0.38613722     0.12200
C637        C  0.81194050  0.62891245  0.46888060     0.18500
C638        C  0.82181237  0.62683318  0.49171757    -0.10600
C639        C  0.84458006  0.62306483  0.49345292    -0.11400
C640        C  0.85755030  0.62134623  0.47233575     0.20100
C641        C  0.84760335  0.62332131  0.44952401    -0.13500
C642        C  0.82485699  0.62708175  0.44779049    -0.11800
C643        C  0.88139130  0.61808755  0.47390037     0.01000
C644        C  0.90187435  0.61609719  0.47409568    -0.31800
C645        C  0.78819857  0.63233121  0.46709194     0.02400
C646        C  0.76764242  0.63419514  0.46601695    -0.33400
H647        H  0.81189124  0.62808183  0.50815168     0.13500
H648        H  0.85208517  0.62156016  0.51118936     0.13300
H649        H  0.85748925  0.62203349  0.43308226     0.13200
H650        H  0.81733635  0.62853160  0.43004412     0.12200
C651        C  0.15904895  0.79940140  0.47083938     0.18500
C652        C  0.15062263  0.78021521  0.45096509    -0.10600
C653        C  0.12317581  0.75292693  0.45077393    -0.11400
C654        C  0.10409172  0.74479238  0.47045539     0.20100
C655        C  0.11245391  0.76402402  0.49028636    -0.13500
C656        C  0.13991206  0.79131910  0.49048097    -0.11800
C657        C  0.07603671  0.71663747  0.47042391     0.01000
C658        C  0.05257002  0.69298963  0.47068155    -0.31800
C659        C  0.18733025  0.82734942  0.47099599     0.02400
C660        C  0.21102868  0.85077416  0.47061486    -0.33400
H661        H  0.16527661  0.78632084  0.43567965     0.13500
H662        H  0.11688200  0.73817880  0.43536202     0.13300
H663        H  0.09780558  0.75788512  0.50557973     0.13200
H664        H  0.14623354  0.80604806  0.50590992     0.12200
C665        C  0.26990193  0.08907526  0.46601294     0.18500
C666        C  0.25763562  0.06721521  0.44792020    -0.10600
C667        C  0.26242565  0.04517219  0.44845555    -0.11400
C668        C  0.27954760  0.04495072  0.46706373     0.20100
C669        C  0.29223325  0.06709203  0.48495959    -0.13500
C670        C  0.28743805  0.08915265  0.48442248    -0.11800
C671        C  0.28342341  0.02157267  0.46802387     0.01000
C672        C  0.28570834  0.00133191  0.46852887    -0.31800
C673        C  0.26463507  0.11150091  0.46564516     0.02400
C674        C  0.26167187  0.13129900  0.46552545    -0.33400
H675        H  0.24421726  0.06709344  0.43352658     0.13500
H676        H  0.25257832  0.02817181  0.43451537     0.13300
H677        H  0.30557127  0.06715134  0.49940059     0.13200
H678        H  0.29719657  0.10610152  0.49840872     0.12200
C679        C  0.45617633  0.38950437  0.56674895     0.18500
C680        C  0.46876482  0.40503427  0.58857164    -0.10600
C681        C  0.49595214  0.43265617  0.58847488    -0.11400
C682        C  0.51072822  0.44490049  0.56655104     0.20100
C683        C  0.49780301  0.42972610  0.54465185    -0.13500
C684        C  0.47059609  0.40207934  0.54474854    -0.11800
C685        C  0.54013498  0.47172733  0.56677519     0.01000
C686        C  0.56560723  0.49271247  0.56749349    -0.31800
C687        C  0.42957310  0.35993311  0.56719275     0.02400
C688        C  0.40862115  0.33448794  0.56829433    -0.33400
H689        H  0.45793307  0.39546468  0.60570531     0.13500
H690        H  0.50582214  0.44407221  0.60553524     0.13300
H691        H  0.50912277  0.43887541  0.52760795     0.13200
H692        H  0.46118967  0.39021258  0.52777307     0.12200
C693        C  0.96047467  0.38248408  0.56372607     0.18500
C694        C  0.98565745  0.41168253  0.56326251    -0.10600
C695        C  0.98273535  0.43507627  0.56306260    -0.11400
C696        C  0.95463364  0.42936113  0.56332877     0.20100
C697        C  0.92949272  0.40017359  0.56323903    -0.13500
C698        C  0.93240773  0.37682684  0.56343744    -0.11800
C699        C  0.95140587  0.45323608  0.56482070     0.01000
C700        C  0.94757958  0.47239496  0.56697524    -0.31800
C701        C  0.96318993  0.35827478  0.56551827     0.02400
C702        C  0.96373228  0.33700809  0.56782949    -0.33400
H703        H  0.00747343  0.41634941  0.56349154     0.13500
H704        H  0.00234350  0.45756540  0.56315121     0.13300
H705        H  0.90766303  0.39548070  0.56347023     0.13200
H706        H  0.91277034  0.35436638  0.56380763     0.12200
C707        C  0.76162165  0.53635841  0.56862606     0.18500
C708        C  0.77891042  0.54299899  0.54787653    -0.10600
C709        C  0.80160525  0.53903655  0.54790595    -0.11400
C710        C  0.80707279  0.52837720  0.56868513     0.20100
C711        C  0.78966504  0.52155868  0.58934794    -0.13500
C712        C  0.76699584  0.52551731  0.58932038    -0.11800
C713        C  0.83143306  0.52585561  0.56930720     0.01000
C714        C  0.85296237  0.52562982  0.57060905    -0.31800
C715        C  0.73865669  0.54102069  0.56888519     0.02400
C716        C  0.71947472  0.54497862  0.56951263    -0.33400
H717        H  0.77502898  0.55147641  0.53178446     0.13500
H718        H  0.81507868  0.54460563  0.53188586     0.13300
H719        H  0.79384021  0.51351629  0.60557124     0.13200
H720        H  0.75383707  0.52037237  0.60547926     0.12200
C721        C  0.63015245  0.90339600  0.69532396     0.18500
C722        C  0.65537872  0.91208336  0.70891269    -0.10600
C723        C  0.65443405  0.91169913  0.73431320    -0.11400
C724        C  0.62827736  0.90265750  0.74629292     0.20100
C725        C  0.60280374  0.89313333  0.73270186    -0.13500
C726        C  0.60374399  0.89349989  0.70728762    -0.11800
C727        C  0.62845998  0.90593951  0.77231063     0.01000
C728        C  0.63003939  0.91191137  0.79363345    -0.31800
C729        C  0.63200881  0.90707685  0.66933294     0.02400
C730        C  0.63396611  0.91274455  0.64798830    -0.33400
H731        H  0.67598962  0.92001791  0.69990240     0.13500
H732        H  0.67434025  0.91937136  0.74460200     0.13300
H733        H  0.58251485  0.88635138  0.74172664     0.13200
H734        H  0.58415697  0.88696306  0.69699696     0.12200
C735        C  0.99827977  0.27506738  0.69361247     0.18500
C736        C  0.99123401  0.29186494  0.70671505    -0.10600
C737        C  0.99071798  0.29125518  0.73212060    -0.11400
C738        C  0.99724618  0.27384529  0.74475868     0.20100
C739        C  0.00488443  0.25744345  0.73170815    -0.13500
C740        C  0.00539778  0.25805237  0.70620791    -0.11800
C741        C  0.99417934  0.27163126  0.77091529     0.01000
C742        C  0.98877602  0.26970545  0.79239201    -0.31800
C743        C  0.99591059  0.27378564  0.66738538     0.02400
C744        C  0.99065388  0.27204539  0.64585010    -0.33400
H745        H  0.98543892  0.30491268  0.69726635     0.13500
H746        H  0.98457121  0.30387597  0.74190520     0.13300
H747        H  0.00979391  0.24372144  0.74119028     0.13200
H748        H  0.01065543  0.24476029  0.69634012     0.12200
C749        C  0.77266834  0.07402842  0.86408136     0.18500
C750        C  0.79230511  0.08381495  0.88381160    -0.10600
C751        C  0.81911091  0.11181433  0.88340710    -0.11400
C752        C  0.82635878  0.13012595  0.86328647     0.20100
C753        C  0.80678993  0.12025301  0.84353930    -0.13500
C754        C  0.78002645  0.09229544  0.84394220    -0.11800
C755        C  0.85388403  0.15895463  0.86281252     0.01000
C756        C  0.87717293  0.18288270  0.86231629    -0.31800
C757        C  0.74475588  0.04551383  0.86448903     0.02400
C758        C  0.72091982  0.02207785  0.86414940    -0.33400
H759        H  0.78686033  0.06989726  0.89949508     0.13500
H760        H  0.83411105  0.11919445  0.89876129     0.13300
H761        H  0.81218494  0.13418102  0.82787231     0.13200
H762        H  0.76501621  0.08496834  0.82860300     0.12200
C763        C  0.85432640  0.09950904  0.96708357     0.18500
C764        C  0.85245205  0.07477046  0.97554509    -0.10600
C765        C  0.82539851  0.04709886  0.97520422    -0.11400
C766        C  0.80007374  0.04401755  0.96641081     0.20100
C767        C  0.80193453  0.06870241  0.95774665    -0.13500
C768        C  0.82904437  0.09642746  0.95807749    -0.11800
C769        C  0.77218353  0.01559822  0.96675196     0.01000
C770        C  0.74904035  0.99162896  0.96761736    -0.31800
C771        C  0.88226508  0.12792066  0.96773078     0.02400
C772        C  0.90622959  0.15114078  0.96851483    -0.33400
H773        H  0.87187398  0.07690386  0.98248586     0.13500
H774        H  0.82419318  0.02815095  0.98193086     0.13300
H775        H  0.78246966  0.06653853  0.95088484     0.13200
H776        H  0.83026885  0.11540761  0.95141311     0.12200
C777        C  0.64228893  0.59703847  0.24153756     0.18500
C778        C  0.62579752  0.56981049  0.22928373    -0.10600
C779        C  0.62465102  0.56877391  0.20385881    -0.11400
C780        C  0.63998270  0.59496489  0.19052751     0.20100
C781        C  0.65696403  0.62214885  0.20276086    -0.13500
C782        C  0.65810516  0.62318630  0.22817739    -0.11800
C783        C  0.63666481  0.59407332  0.16447863     0.01000
C784        C  0.63210846  0.59341630  0.14295059    -0.31800
C785        C  0.64145168  0.59815828  0.26771089     0.02400
C786        C  0.63854993  0.59841260  0.28943450    -0.33400
H787        H  0.61331282  0.54943413  0.23937912     0.13500
H788        H  0.61128289  0.54761945  0.19463298     0.13300
H789        H  0.66875308  0.64254938  0.19267357     0.13200
H790        H  0.67077753  0.64437422  0.23740263     0.12200
C791        C  0.61746904  0.89625518  0.19207674     0.18500
C792        C  0.61335799  0.91528374  0.20517655    -0.10600
C793        C  0.61287734  0.91468881  0.23060120    -0.11400
C794        C  0.61653224  0.89508212  0.24307580     0.20100
C795        C  0.62103692  0.87632942  0.22997499    -0.13500
C796        C  0.62152107  0.87692704  0.20456398    -0.11800
C797        C  0.61448404  0.89330955  0.26920579     0.01000
C798        C  0.61133623  0.89008126  0.29091206    -0.31800
C799        C  0.61547224  0.89502870  0.16591709     0.02400
C800        C  0.61149454  0.89153683  0.14423660    -0.33400
H801        H  0.60995679  0.93015006  0.19574224     0.13500
H802        H  0.60920257  0.92916887  0.24050341     0.13300
H803        H  0.62371250  0.86094280  0.23938373     0.13200
H804        H  0.62447295  0.86193007  0.19465548     0.12200
C805        C  0.58252617  0.74353936  0.06596864     0.18500
C806        C  0.60522617  0.74587755  0.05261555    -0.10600
C807        C  0.60790562  0.72236049  0.05193536    -0.11400
C808        C  0.58787908  0.69641102  0.06461587     0.20100
C809        C  0.56501634  0.69399230  0.07773319    -0.13500
C810        C  0.56233821  0.71749015  0.07840725    -0.11800
C811        C  0.59125309  0.67261130  0.06483840     0.01000
C812        C  0.59440648  0.65292621  0.06588196    -0.31800
C813        C  0.58063669  0.76823466  0.06765307     0.02400
C814        C  0.58055647  0.78980203  0.06940235    -0.33400
H815        H  0.62103694  0.76597956  0.04300117     0.13500
H816        H  0.62572586  0.72452527  0.04178973     0.13300
H817        H  0.54946917  0.67407381  0.08766232     0.13200
H818        H  0.54478448  0.71549182  0.08885057     0.12200
C819        C  0.29882567  0.24860220  0.24540137     0.18500
C820        C  0.32454937  0.25744658  0.23275218    -0.10600
C821        C  0.32431394  0.25645768  0.20730811    -0.11400
C822        C  0.29835112  0.24662193  0.19433251     0.20100
C823        C  0.27249641  0.23722471  0.20700650    -0.13500
C824        C  0.27273267  0.23821695  0.23243303    -0.11800
C825        C  0.29875746  0.24843091  0.16814750     0.01000
C826        C  0.29935873  0.25251424  0.14654571    -0.31800
C827        C  0.29960336  0.25190738  0.27149973     0.02400
C828        C  0.30038092  0.25659188  0.29305311    -0.33400
H829        H  0.34492419  0.26572496  0.24252415     0.13500
H830        H  0.34452621  0.26404265  0.19776120     0.13300
H831        H  0.25234739  0.22983094  0.19722611     0.13200
H832        H  0.25274770  0.23151994  0.24194970     0.12200
C833        C  0.50201751  0.44289864  0.06836604     0.18500
C834        C  0.48266597  0.43264338  0.04845723    -0.10600
C835        C  0.45589739  0.40477300  0.04902870    -0.11400
C836        C  0.44832826  0.38700612  0.06951707     0.20100
C837        C  0.46829871  0.39661586  0.08897441    -0.13500
C838        C  0.49514897  0.42456659  0.08839972    -0.11800
C839        C  0.41887320  0.36065002  0.07149987     0.01000
C840        C  0.39314143  0.34058036  0.07286486    -0.31800
C841        C  0.52727745  0.47315005  0.06903567     0.02400
C842        C  0.54663045  0.49919923  0.06935405    -0.33400
H843        H  0.48771017  0.44667078  0.03292617     0.13500
H844        H  0.44055659  0.39761603  0.03394666     0.13300
H845        H  0.46259256  0.38308625  0.10495582     0.13200
H846        H  0.50993041  0.43232222  0.10393088     0.12200
C847        C  0.99444784  0.27528857  0.24447172     0.18500
C848        C  0.99087168  0.29504417  0.23216609    -0.10600
C849        C  0.99073789  0.29542624  0.20675486    -0.11400
C850        C  0.99419754  0.27606218  0.19345996     0.20100
C851        C  0.99712495  0.25585210  0.20574741    -0.13500
C852        C  0.99726505  0.25547353  0.23118310    -0.11800
C853        C  0.99710836  0.27858055  0.16740261     0.01000
C854        C  0.00214970  0.28279942  0.14594681    -0.31800
C855        C  0.99716605  0.27680022  0.27060209     0.02400
C856        C  0.00161893  0.28050240  0.29223194    -0.33400
H857        H  0.98889130  0.31062058  0.24221221     0.13500
H858        H  0.98869955  0.31131833  0.19749621     0.13300
H859        H  0.00005447  0.24092944  0.19569033     0.13200
H860        H  0.00025897  0.24023740  0.24046190     0.12200
C861        C  0.15214757  0.30831033  0.07319441     0.18500
C862        C  0.18168320  0.33278719  0.07410720    -0.10600
C863        C  0.20433011  0.32885563  0.07240418    -0.11400
C864        C  0.19751285  0.30044321  0.06980829     0.20100
C865        C  0.16798300  0.27603975  0.06841399    -0.13500
C866        C  0.14536307  0.27996586  0.07011963    -0.11800
C867        C  0.22069938  0.29616599  0.06995120     0.01000
C868        C  0.23989635  0.29230629  0.07121150    -0.31800
C869        C  0.12864604  0.31199186  0.07541676     0.02400
C870        C  0.10752789  0.31289882  0.07671394    -0.33400
H871        H  0.18718455  0.35481008  0.07637932     0.13500
H872        H  0.22709729  0.34787156  0.07352373     0.13300
H873        H  0.16245106  0.25397229  0.06642569     0.13200
H874        H  0.12259888  0.26089518  0.06928785     0.12200
C875        C  0.69219897  0.75350593  0.97347101     0.18500
C876        C  0.67166410  0.75170341  0.98950572    -0.10600
C877        C  0.66765237  0.77431671  0.99036257    -0.11400
C878        C  0.68415525  0.79873845  0.97514391     0.20100
C879        C  0.70480924  0.80060942  0.95928069    -0.13500
C880        C  0.70880769  0.77803201  0.95842032    -0.11800
C881        C  0.67969314  0.82172038  0.97529629     0.01000
C882        C  0.67688041  0.84158686  0.97433321    -0.31800
C883        C  0.69566529  0.72985336  0.97199365     0.02400
C884        C  0.69711983  0.70910112  0.97066862    -0.33400
H885        H  0.65862970  0.73275222  0.00116770     0.13500
H886        H  0.65159526  0.77265570  0.00267500     0.13300
H887        H  0.71763975  0.81940821  0.94743295     0.13200
H888        H  0.72464991  0.77958174  0.94591285     0.12200
C889        C  0.10244862  0.21595935  0.97070343     0.18500
C890        C  0.12905922  0.23614456  0.98291539    -0.10600
C891        C  0.15263771  0.23364221  0.98112108    -0.11400
C892        C  0.14973152  0.21096915  0.96710601     0.20100
C893        C  0.12305244  0.19065670  0.95504219    -0.13500
C894        C  0.09947282  0.19315976  0.95683504    -0.11800
C895        C  0.17416959  0.20868140  0.96509034     0.01000
C896        C  0.19513493  0.20749808  0.96403289    -0.31800
C897        C  0.07841356  0.21895276  0.97195487     0.02400
C898        C  0.05819196  0.22135613  0.97222120    -0.33400
H899        H  0.13162203  0.25386352  0.99367943     0.13500
H900        H  0.17315529  0.24944458  0.99056900     0.13300
H901        H  0.12054085  0.17301942  0.94419342     0.13200
H902        H  0.07900172  0.17744174  0.94729835     0.12200
C903        C  0.33635135  0.94494603  0.69248897     0.18500
C904        C  0.35703232  0.94334411  0.70560554    -0.10600
C905        C  0.35731958  0.94414814  0.73101116    -0.11400
C906        C  0.33692946  0.94657211  0.74360393     0.20100
C907        C  0.31581385  0.94760670  0.73054629    -0.13500
C908        C  0.31553059  0.94680859  0.70505323    -0.11800
C909        C  0.33893088  0.94955305  0.76977217     0.01000
C910        C  0.34307352  0.95361725  0.79144232    -0.31800
C911        C  0.33795251  0.94646916  0.66626571     0.02400
C912        C  0.34234862  0.94980766  0.64463519    -0.33400
H913        H  0.37335424  0.94207685  0.69617182     0.13500
H914        H  0.37384037  0.94346448  0.74083107     0.13300
H915        H  0.29998968  0.94960602  0.74002937     0.13200
H916        H  0.29950783  0.94822991  0.69517568     0.12200
C917        C  0.46823450  0.94467589  0.86867418     0.18500
C918        C  0.47687096  0.93870062  0.84688500    -0.10600
C919        C  0.49997083  0.93536813  0.84680474    -0.11400
C920        C  0.51454748  0.93795997  0.86851610     0.20100
C921        C  0.50565452  0.94352937  0.89036824    -0.13500
C922        C  0.48254256  0.94686941  0.89044829    -0.11800
C923        C  0.53947903  0.93631069  0.86818539     0.01000
C924        C  0.56131436  0.93655534  0.86752411    -0.31800
C925        C  0.44549527  0.94964769  0.86844645     0.02400
C926        C  0.42713355  0.95472740  0.86759957    -0.33400
H927        H  0.46604482  0.93705296  0.82993421     0.13500
H928        H  0.50674680  0.93121725  0.82977820     0.13300
H929        H  0.51686069  0.94572582  0.90724344     0.13200
H930        H  0.47613141  0.95157810  0.90740141     0.12200
C931        C  0.30947010  0.23597589  0.69184791     0.18500
C932        C  0.30330525  0.25376304  0.70449665    -0.10600
C933        C  0.30374998  0.25437703  0.72996220    -0.11400
C934        C  0.31035282  0.23719390  0.74291518     0.20100
C935        C  0.31582643  0.21890832  0.73024367    -0.13500
C936        C  0.31538635  0.21829866  0.70482965    -0.11800
C937        C  0.31345944  0.23958204  0.76904408     0.01000
C938        C  0.31854387  0.24185982  0.79061272    -0.31800
C939        C  0.31193885  0.23737380  0.66570887     0.02400
C940        C  0.31675852  0.23921048  0.64416765    -0.33400
H941        H  0.29888742  0.26767805  0.69469603     0.13500
H942        H  0.29964182  0.26873726  0.73951169     0.13300
H943        H  0.32113229  0.20564952  0.74000462     0.13200
H944        H  0.32038767  0.20460048  0.69530653     0.12200
C945        C  0.37249356  0.14723624  0.87402961     0.18500
C946        C  0.39346117  0.14753271  0.85972921    -0.10600
C947        C  0.39635995  0.12421167  0.86092465    -0.11400
C948        C  0.37829948  0.10047305  0.87641912     0.20100
C949        C  0.35783745  0.10052718  0.89120629    -0.13500
C950        C  0.35495029  0.12388162  0.89002563    -0.11800
C951        C  0.37918128  0.07511254  0.87563092     0.01000
C952        C  0.37826644  0.05301495  0.87337843    -0.31800
C953        C  0.36810131  0.17019231  0.87149413     0.02400
C954        C  0.36366758  0.18883816  0.86891457    -0.33400
H955        H  0.40710651  0.16545513  0.84727832     0.13500
H956        H  0.41212256  0.12431303  0.84932105     0.13300
H957        H  0.34362460  0.08219721  0.90314975     0.13200
H958        H  0.33863752  0.12341133  0.90114776     0.12200
C959        C  0.96132239  0.56743073  0.24496489     0.18500
C960        C  0.95185040  0.54118102  0.23264918    -0.10600
C961        C  0.95358375  0.54081766  0.20729959    -0.11400
C962        C  0.96480613  0.56671011  0.19411129     0.20100
C963        C  0.97326556  0.59269960  0.20634827    -0.13500
C964        C  0.97154512  0.59306646  0.23169471    -0.11800
C965        C  0.96986750  0.56726415  0.16837412     0.01000
C966        C  0.97639235  0.56895520  0.14724580    -0.31800
C967        C  0.96377517  0.56885498  0.27111568     0.02400
C968        C  0.96942903  0.57084274  0.29254595    -0.33400
H969        H  0.94417293  0.52128474  0.24269146     0.13500
H970        H  0.94711552  0.52062366  0.19807946     0.13300
H971        H  0.98212101  0.61289928  0.19637973     0.13200
H972        H  0.97920619  0.61357145  0.24098367     0.12200
C973        C  0.00772330  0.41124382  0.06463177     0.18500
C974        C  0.00234482  0.42025351  0.08650891    -0.10600
C975        C  0.00086554  0.44446928  0.08699136    -0.11400
C976        C  0.00470164  0.45975980  0.06559907     0.20100
C977        C  0.01001365  0.45075282  0.04365932    -0.13500
C978        C  0.01150706  0.42648323  0.04317676    -0.11800
C979        C  0.00361240  0.48492212  0.06642509     0.01000
C980        C  0.00333318  0.50632697  0.06828805    -0.31800
C981        C  0.01053743  0.38713491  0.06461523     0.02400
C982        C  0.01407412  0.36777219  0.06606247    -0.33400
H983        H  0.99958183  0.40873341  0.10321419     0.13500
H984        H  0.99689467  0.45136883  0.10406110     0.13300
H985        H  0.01314981  0.46254869  0.02704002     0.13200
H986        H  0.01586711  0.41979112  0.02618748     0.12200
C987        C  0.33534677  0.94736222  0.19261539     0.18500
C988        C  0.31355661  0.94788668  0.20485740    -0.10600
C989        C  0.31259887  0.94717919  0.23029684    -0.11400
C990        C  0.33344826  0.94594968  0.24357206     0.20100
C991        C  0.35578454  0.94644758  0.23131230    -0.13500
C992        C  0.35672246  0.94712523  0.20594456    -0.11800
C993        C  0.33056487  0.94129647  0.26945538     0.01000
C994        C  0.32830644  0.93438419  0.29051878    -0.31800
C995        C  0.33410814  0.94395681  0.16657102     0.02400
C996        C  0.33202477  0.93758252  0.14531225    -0.33400
H997        H  0.29673920  0.94778637  0.19474710     0.13500
H998        H  0.29506860  0.94656441  0.23953417     0.13300
H999        H  0.37186883  0.94524974  0.24133981     0.13200
H1000       H  0.37349383  0.94641049  0.19671437     0.12200
C1001       C  0.48357895  0.89054401  0.06368179     0.18500
C1002       C  0.45801174  0.87061980  0.07679132    -0.10600
C1003       C  0.43558810  0.87478999  0.07862583    -0.11400
C1004       C  0.43862711  0.89892072  0.06734261     0.20100
C1005       C  0.46410038  0.91876643  0.05408271    -0.13500
C1006       C  0.48657166  0.91459735  0.05225497    -0.11800
C1007       C  0.41534270  0.90291109  0.06915589     0.01000
C1008       C  0.39471687  0.90453412  0.07079694    -0.31800
C1009       C  0.50705234  0.88674059  0.06286202     0.02400
C1010       C  0.52627871  0.88292428  0.06385509    -0.33400
H1011       H  0.45552345  0.85200146  0.08575645     0.13500
H1012       H  0.41594137  0.85926809  0.08886263     0.13300
H1013       H  0.46660626  0.93744734  0.04523167     0.13200
H1014       H  0.50629712  0.93018312  0.04213564     0.12200
C1015       C  0.13201054  0.71812034  0.08484966     0.18500
C1016       C  0.15280234  0.72554697  0.10317737    -0.10600
C1017       C  0.17950571  0.75349654  0.10363969    -0.11400
C1018       C  0.18541851  0.77404297  0.08577991     0.20100
C1019       C  0.16443169  0.76677978  0.06766726    -0.13500
C1020       C  0.13772386  0.73882174  0.06720253    -0.11800
C1021       C  0.21353869  0.80205186  0.08535163     0.01000
C1022       C  0.23753839  0.82500720  0.08418328    -0.31800
C1023       C  0.10520162  0.68899305  0.08379476     0.02400
C1024       C  0.08299188  0.66438194  0.08276808    -0.33400
H1025       H  0.14853518  0.70962523  0.11687137     0.13500
H1026       H  0.19568382  0.75892312  0.11765595     0.13300
H1027       H  0.16890441  0.78253069  0.05373098     0.13200
H1028       H  0.12175305  0.73322253  0.05294152     0.12200
C1029       C  0.80829587  0.62553384  0.97570781     0.18500
C1030       C  0.83758037  0.65040636  0.97437999    -0.10600
C1031       C  0.86069738  0.64709851  0.97401211    -0.11400
C1032       C  0.85465605  0.61891810  0.97497520     0.20100
C1033       C  0.82539312  0.59404737  0.97640977    -0.13500
C1034       C  0.80227296  0.59735474  0.97677919    -0.11800
C1035       C  0.87846904  0.61557021  0.97432420     0.01000
C1036       C  0.89884831  0.61344537  0.97358698    -0.31800
C1037       C  0.78441893  0.62885108  0.97552803     0.02400
C1038       C  0.76397047  0.63092062  0.97492157    -0.33400
H1039       H  0.84251039  0.67228734  0.97350440     0.13500
H1040       H  0.88325146  0.66648820  0.97288536     0.13300
H1041       H  0.82046903  0.57216088  0.97714703     0.13200
H1042       H  0.77971500  0.57794959  0.97776976     0.12200
C1043       C  0.10343920  0.73917765  0.96508301     0.18500
C1044       C  0.12200779  0.74742229  0.94502376    -0.10600
C1045       C  0.14972741  0.77442916  0.94518816    -0.11400
C1046       C  0.15894416  0.79322483  0.96542004     0.20100
C1047       C  0.14039361  0.78496038  0.98551407    -0.13500
C1048       C  0.11266632  0.75794717  0.98534889    -0.11800
C1049       C  0.18726625  0.82113325  0.96541502     0.01000
C1050       C  0.21066931  0.84486570  0.96538458    -0.31800
C1051       C  0.07494829  0.71146319  0.96491428     0.02400
C1052       C  0.05104007  0.68827494  0.96529290    -0.33400
H1053       H  0.11504810  0.73302057  0.92928780     0.13500
H1054       H  0.16392244  0.78067964  0.92955978     0.13300
H1055       H  0.14733299  0.79938406  0.00123666     0.13200
H1056       H  0.09844637  0.75171568  0.00096037     0.12200
C1057       C  0.27605656  0.04085961  0.96545954     0.18500
C1058       C  0.25196445  0.03750812  0.97720308    -0.10600
C1059       C  0.24898058  0.06081514  0.97777492    -0.11400
C1060       C  0.27007960  0.08756338  0.96658419     0.20100
C1061       C  0.29408387  0.09083843  0.95471415    -0.13500
C1062       C  0.29707232  0.06753841  0.95415304    -0.11800
C1063       C  0.26740910  0.11180945  0.96751140     0.01000
C1064       C  0.26633531  0.13285384  0.96808254    -0.31800
C1065       C  0.27933518  0.01703684  0.96527449     0.02400
C1066       C  0.28173451  0.99685564  0.96549218    -0.33400
H1067       H  0.23559487  0.01695637  0.98600539     0.13500
H1068       H  0.23035226  0.05804060  0.98701399     0.13300
H1069       H  0.31054459  0.11143133  0.94601096     0.13200
H1070       H  0.31579156  0.07036415  0.94504159     0.12200
C1071       C  0.96056624  0.56228094  0.69487191     0.18500
C1072       C  0.96515560  0.54362698  0.70785513    -0.10600
C1073       C  0.96456801  0.54352353  0.73326090    -0.11400
C1074       C  0.95942869  0.56210282  0.74585032     0.20100
C1075       C  0.95564031  0.58133920  0.73290072    -0.13500
C1076       C  0.95622755  0.58144242  0.70747709    -0.11800
C1077       C  0.95613549  0.55997462  0.77187074     0.01000
C1078       C  0.95142929  0.55607936  0.79337638    -0.31800
C1079       C  0.95800441  0.56004107  0.66874748     0.02400
C1080       C  0.95367545  0.55607907  0.64712025    -0.33400
H1081       H  0.96836948  0.52859591  0.69833606     0.13500
H1082       H  0.96737317  0.52844114  0.74305445     0.13300
H1083       H  0.95149938  0.59569585  0.74241765     0.13200
H1084       H  0.95249448  0.59585299  0.69765796     0.12200
C1085       C  0.95591873  0.43128360  0.87187074     0.18500
C1086       C  0.93244982  0.40232911  0.87734054    -0.10600
C1087       C  0.93655059  0.37978999  0.87692924    -0.11400
C1088       C  0.96413162  0.38603488  0.87105595     0.20100
C1089       C  0.98771708  0.41503401  0.86577057    -0.13500
C1090       C  0.98360860  0.43762334  0.86618696    -0.11800
C1091       C  0.96765509  0.36236180  0.86977833     0.01000
C1092       C  0.96793551  0.34088027  0.86833242    -0.31800
C1093       C  0.95120903  0.45417642  0.87142998     0.02400
C1094       C  0.94631765  0.47264900  0.87047699    -0.33400
H1095       H  0.91093136  0.39713956  0.88168000     0.13500
H1096       H  0.91812659  0.35743011  0.88095448     0.13300
H1097       H  0.00910652  0.42010101  0.86111608     0.13200
H1098       H  0.00189822  0.45992716  0.86185037     0.12200
C1099       C  0.65924583  0.58676032  0.69256995     0.18500
C1100       C  0.68492519  0.59603848  0.70576202    -0.10600
C1101       C  0.68479530  0.59655406  0.73120058    -0.11400
C1102       C  0.65899705  0.58780138  0.74366393     0.20100
C1103       C  0.63338780  0.57878140  0.73049552    -0.13500
C1104       C  0.63351866  0.57827293  0.70504769    -0.11800
C1105       C  0.65836781  0.58629457  0.76985352     0.01000
C1106       C  0.65767031  0.58273914  0.79153533    -0.31800
C1107       C  0.65886901  0.58448821  0.66636255     0.02400
C1108       C  0.65811713  0.58068147  0.64463422    -0.33400
H1109       H  0.70490075  0.60241780  0.69639986     0.13500
H1110       H  0.70465588  0.60328441  0.74114583     0.13300
H1111       H  0.61320938  0.57166946  0.73988558     0.13200
H1112       H  0.61344385  0.57081295  0.69511835     0.12200
C1113       C  0.50801006  0.45037712  0.86748055     0.18500
C1114       C  0.49599760  0.43488566  0.88915134    -0.10600
C1115       C  0.46890619  0.40719892  0.88880124    -0.11400
C1116       C  0.45376276  0.39494182  0.86678517     0.20100
C1117       C  0.46529737  0.41091213  0.84525481    -0.13500
C1118       C  0.49237279  0.43859474  0.84560736    -0.11800
C1119       C  0.42784576  0.36505356  0.86596886     0.01000
C1120       C  0.40773862  0.33927230  0.86506277    -0.31800
C1121       C  0.53762067  0.47667465  0.86723147     0.02400
C1122       C  0.56335272  0.49680228  0.86641800    -0.33400
H1123       H  0.50805046  0.44369843  0.90612861     0.13500
H1124       H  0.46028019  0.39494024  0.90552472     0.13300
H1125       H  0.45387507  0.40154842  0.82810997     0.13200
H1126       H  0.50161164  0.45029617  0.82872555     0.12200
C1127       C  0.75645624  0.53249360  0.86821231     0.18500
C1128       C  0.75060501  0.50498553  0.86241015    -0.10600
C1129       C  0.77361347  0.50148757  0.86206718    -0.11400
C1130       C  0.80250941  0.52547612  0.86754848     0.20100
C1131       C  0.80822289  0.55280372  0.87378317    -0.13500
C1132       C  0.78526077  0.55629440  0.87412645    -0.11800
C1133       C  0.82657613  0.52256318  0.86624016     0.01000
C1134       C  0.84823264  0.52255045  0.86521295    -0.31800
C1135       C  0.73324753  0.53672394  0.86725562     0.02400
C1136       C  0.71452566  0.54126044  0.86605241    -0.33400
H1137       H  0.72840429  0.48643053  0.85781753     0.13500
H1138       H  0.76894751  0.48025199  0.85723915     0.13300
H1139       H  0.83047769  0.57149180  0.87806934     0.13200
H1140       H  0.79003951  0.57765255  0.87864844     0.12200
loop_ 
_geom_bond_atom_site_label_1 
_geom_bond_atom_site_label_2 
_geom_bond_distance 
_geom_bond_site_symmetry_2 
_ccdc_geom_bond_type 
In1           O3   2.247       .  S
In1           O4   2.234       .  S
In1          O12   2.237       .  S
In1           O6   2.266       .  S
In1           O8   2.262       .  S
In1           O9   2.245       .  S
In1          O10   2.243       .  S
In1          O13   2.247       .  S
C2            O8   1.262       .  A
C2           O10   1.258       .  A
C2          C124   1.467       .  S
O3           C11   1.259       .  A
O4           C11   1.259       .  A
C5           O12   1.257       .  A
C5            O6   1.262       .  A
C5         C1106   1.439       .  S
C7            O9   1.259       .  A
C7           O13   1.260       .  A
C7         C1136   1.435       .  S
C11        C1122   1.431       .  S
In14         O16   2.234       .  S
In14         O17   2.252       .  S
In14         O25   2.236       .  S
In14         O19   2.259       .  S
In14         O21   2.255       .  S
In14         O22   2.243       .  S
In14         O23   2.239       .  S
In14         O26   2.247       .  S
C15          O21   1.263       .  A
C15          O23   1.259       .  A
C15          C46   1.465       .  S
O16          C24   1.259       .  A
O17          C24   1.262       .  A
C18          O25   1.258       .  A
C18          O19   1.262       .  A
C18        C1078   1.437       .  S
C20          O22   1.261       .  A
C20          O26   1.260       .  A
C20        C1094   1.436       .  S
C24        C1134   1.434       .  S
In27         O29   2.248       .  S
In27         O30   2.250       .  S
In27         O38   2.242       .  S
In27         O32   2.236       .  S
In27         O34   2.233       .  S
In27         O35   2.252       .  S
In27         O36   2.248       .  S
In27         O39   2.249   1_556  S
C28          O34   1.258       .  A
C28          O36   1.260       .  A
C28        C1050   1.430       .  S
O29          C37   1.258       .  A
O30          C37   1.261       .  A
C31          O38   1.261       .  A
C31          O32   1.259       .  A
C31        C1066   1.432       .  S
C33          O35   1.261   1_554  A
C33          O39   1.258       .  A
C33          C54   1.464       .  S
C37          C93   1.464       .  S
In40         O42   2.260   1_556  S
In40         O43   2.253       .  S
In40         O51   2.246       .  S
In40         O45   2.237       .  S
In40         O47   2.237   1_655  S
In40         O48   2.251       .  S
In40         O49   2.242   1_655  S
In40         O52   2.251       .  S
C41          O47   1.259       .  A
C41          O49   1.259       .  A
C41        C1052   1.430       .  S
O42          C50   1.257       .  A
O43          C50   1.259   1_556  A
C44          O51   1.261       .  A
C44          O45   1.260       .  A
C44        C1036   1.434       .  S
C46          O48   1.261       .  A
C46          O52   1.258       .  A
C50          C67   1.466       .  S
In53         O55   2.248       .  S
In53         O56   2.227       .  S
In53         O64   2.231       .  S
In53         O58   2.267       .  S
In53         O60   2.255       .  S
In53         O61   2.237       .  S
In53         O62   2.240       .  S
In53         O65   2.242       .  S
C54          O60   1.263       .  A
C54          O62   1.258       .  A
O55          C63   1.262       .  A
O56          C63   1.259       .  A
C57          O64   1.256       .  A
C57          O58   1.262       .  A
C57         C996   1.436       .  S
C59          O61   1.258       .  A
C59          O65   1.258       .  A
C59        C1022   1.428       .  S
C63        C1008   1.432       .  S
In66         O68   2.238       .  S
In66         O69   2.241       .  S
In66         O77   2.241       .  S
In66         O71   2.256   1_455  S
In66         O73   2.264   1_455  S
In66         O74   2.228       .  S
In66         O75   2.240       .  S
In66         O78   2.243   1_455  S
C67          O73   1.262       .  A
C67          O75   1.257   1_655  A
O68          C76   1.257       .  A
O69          C76   1.258       .  A
C70          O77   1.259   1_655  A
C70          O71   1.262       .  A
C70         C966   1.438       .  S
C72          O74   1.259       .  A
C72          O78   1.262   1_455  A
C72         C980   1.430       .  S
C76        C1024   1.428       .  S
In79         O81   2.246       .  S
In79         O82   2.248       .  S
In79         O90   2.244       .  S
In79         O84   2.268       .  S
In79         O86   2.257       .  S
In79         O87   2.236       .  S
In79         O88   2.247       .  S
In79         O91   2.252       .  S
C80          O86   1.262       .  A
C80          O88   1.259       .  A
C80         C115   1.468       .  S
O81          C89   1.259       .  A
O82          C89   1.259       .  A
C83          O90   1.257       .  A
C83          O84   1.261       .  A
C83         C938   1.440       .  S
C85          O87   1.259       .  A
C85          O91   1.261       .  A
C85        C1120   1.434       .  S
C89         C954   1.434       .  S
In92         O94   2.246       .  S
In92         O95   2.246       .  S
In92        O103   2.245       .  S
In92         O97   2.263       .  S
In92         O99   2.251       .  S
In92        O100   2.256   1_565  S
In92        O101   2.238       .  S
In92        O104   2.237   1_565  S
C93          O99   1.263       .  A
C93         O101   1.259       .  A
O94         C102   1.260       .  A
O95         C102   1.261       .  A
C96         O103   1.259       .  A
C96          O97   1.262       .  A
C96         C910   1.441       .  S
C98         O100   1.262       .  A
C98         O104   1.258       .  A
C98         C952   1.435       .  S
C102        C926   1.437       .  S
In105       O107   2.255       .  S
In105       O108   2.255       .  S
In105       O116   2.244       .  S
In105       O110   2.247       .  S
In105       O112   2.248       .  S
In105       O113   2.253       .  S
In105       O114   2.242       .  S
In105       O117   2.258   1_556  S
C106        O112   1.261       .  A
C106        O114   1.260       .  A
C106       C1064   1.435       .  S
O107        C115   1.259       .  A
O108        C115   1.261       .  A
C109        O116   1.259       .  A
C109        O110   1.260       .  A
C109        C896   1.435       .  S
C111        O113   1.261   1_554  A
C111        O117   1.259       .  A
C111        C145   1.469       .  S
In118       O120   2.252   1_556  S
In118       O121   2.253       .  S
In118       O129   2.237       .  S
In118       O123   2.253       .  S
In118       O125   2.254       .  S
In118       O126   2.248       .  S
In118       O127   2.243       .  S
In118       O130   2.256       .  S
C119        O125   1.261       .  A
C119        O127   1.259       .  A
C119       C1038   1.437       .  S
O120        C128   1.259       .  A
O121        C128   1.261   1_556  A
C122        O129   1.258       .  A
C122        O123   1.260       .  A
C122        C884   1.433       .  S
C124        O126   1.261       .  A
C124        O130   1.260       .  A
C128        C171   1.467       .  S
In131       O133   2.243   1_455  S
In131       O134   2.238       .  S
In131       O142   2.239       .  S
In131       O136   2.259   1_455  S
In131       O138   2.253   1_455  S
In131       O139   2.256       .  S
In131       O140   2.238       .  S
In131       O143   2.237       .  S
C132        O138   1.263   1_455  A
C132        O140   1.259       .  A
C132        C206   1.465       .  S
O133        C141   1.260   1_655  A
O134        C141   1.261       .  A
C135        O142   1.259       .  A
C135        O136   1.262   1_455  A
C135        C854   1.438       .  S
C137        O139   1.261       .  A
C137        O143   1.258       .  A
C137        C870   1.435       .  S
C141        C982   1.432       .  S
In144       O146   2.247       .  S
In144       O147   2.248       .  S
In144       O155   2.242       .  S
In144       O149   2.267       .  S
In144       O151   2.264       .  S
In144       O152   2.238       .  S
In144       O153   2.245       .  S
In144       O156   2.245       .  S
C145        O151   1.263       .  A
C145        O153   1.258       .  A
O146        C154   1.259       .  A
O147        C154   1.259       .  A
C148        O155   1.258       .  A
C148        O149   1.262       .  A
C148        C826   1.441       .  S
C150        O152   1.260       .  A
C150        O156   1.260       .  A
C150        C840   1.433       .  S
C154        C868   1.435       .  S
In157       O159   2.235       .  S
In157       O160   2.253       .  S
In157       O168   2.238       .  S
In157       O162   2.261       .  S
In157       O164   2.255       .  S
In157       O165   2.241       .  S
In157       O166   2.238       .  S
In157       O169   2.244       .  S
C158        O164   1.262       .  A
C158        O166   1.258       .  A
C158        C189   1.464       .  S
O159        C167   1.258       .  A
O160        C167   1.261       .  A
C161        O168   1.259       .  A
C161        O162   1.262       .  A
C161        C800   1.438       .  S
C163        O165   1.260       .  A
C163        O169   1.261       .  A
C163       C1010   1.433       .  S
C167        C814   1.434       .  S
In170       O172   2.247       .  S
In170       O173   2.245       .  S
In170       O181   2.242       .  S
In170       O175   2.257       .  S
In170       O177   2.250       .  S
In170       O178   2.252       .  S
In170       O179   2.248       .  S
In170       O182   2.242       .  S
C171        O177   1.261       .  A
C171        O179   1.260       .  A
O172        C180   1.259       .  A
O173        C180   1.260       .  A
C174        O181   1.258       .  A
C174        O175   1.261       .  A
C174        C784   1.437       .  S
C176        O178   1.261       .  A
C176        O182   1.259       .  A
C176        C812   1.436       .  S
C180        C842   1.434       .  S
In183       O185   2.254       .  S
In183       O186   2.241       .  S
In183       O194   2.242       .  S
In183       O188   2.236       .  S
In183       O190   2.243       .  S
In183       O191   2.247       .  S
In183       O192   2.241       .  S
In183       O195   2.250   1_556  S
C184        O190   1.259       .  A
C184        O192   1.259       .  A
C184        C770   1.432       .  S
O185        C193   1.259       .  A
O186        C193   1.260       .  A
C187        O194   1.260       .  A
C187        O188   1.259       .  A
C187        C882   1.431       .  S
C189        O191   1.261   1_554  A
C189        O195   1.258       .  A
C193        C232   1.463       .  S
In196       O198   2.254   1_556  S
In196       O199   2.248   1_655  S
In196       O207   2.247   1_655  S
In196       O201   2.246   1_655  S
In196       O203   2.242       .  S
In196       O204   2.254       .  S
In196       O205   2.247       .  S
In196       O208   2.256       .  S
C197        O203   1.259       .  A
C197        O205   1.260       .  A
C197        C772   1.434       .  S
O198        C206   1.258   1_655  A
O199        C206   1.260   1_556  A
C200        O207   1.260       .  A
C200        O201   1.259       .  A
C200        C898   1.435       .  S
C202        O204   1.260       .  A
C202        O208   1.259       .  A
C202        C210   1.468       .  S
In209       O211   2.254       .  S
In209       O212   2.234       .  S
In209       O220   2.246       .  S
In209       O214   2.278       .  S
In209       O216   2.261       .  S
In209       O217   2.252       .  S
In209       O218   2.249       .  S
In209       O221   2.243       .  S
C210        O216   1.262       .  A
C210        O218   1.258       .  A
O211        C219   1.262       .  A
O212        C219   1.259       .  A
C213        O220   1.256       .  A
C213        O214   1.262       .  A
C213        C742   1.444       .  S
C215        O217   1.260       .  A
C215        O221   1.259       .  A
C215        C756   1.435       .  S
C219       C1092   1.435       .  S
In222       O224   2.236       .  S
In222       O225   2.256       .  S
In222       O233   2.253       .  S
In222       O227   2.240       .  S
In222       O229   2.247       .  S
In222       O230   2.265       .  S
In222       O231   2.252       .  S
In222       O234   2.241       .  S
C223        O229   1.260       .  A
C223        O231   1.260       .  A
C223        C758   1.436   1_565  S
O224        C232   1.258       .  A
O225        C232   1.262       .  A
C226        O233   1.260       .  A
C226        O227   1.259       .  A
C226        C924   1.435       .  S
C228        O230   1.261       .  A
C228        O234   1.257       .  A
C228        C728   1.438       .  S
In235       O237   2.245       .  S
In235       O238   2.240       .  S
In235       O246   2.243       .  S
In235       O240   2.260       .  S
In235       O242   2.262       .  S
In235       O243   2.255       .  S
In235       O244   2.238       .  S
In235       O247   2.235       .  S
C236        O242   1.263       .  A
C236        O244   1.258       .  A
C236        C284   1.468       .  S
O237        C245   1.261       .  A
O238        C245   1.261       .  A
C239        O246   1.259       .  A
C239        O240   1.262       .  A
C239       C1080   1.439       .  S
C241        O243   1.261       .  A
C241        O247   1.258       .  A
C241        C714   1.434       .  S
C245        C700   1.436       .  S
In248       O250   2.254       .  S
In248       O251   2.250       .  S
In248       O259   2.246       .  S
In248       O253   2.274       .  S
In248       O255   2.269       .  S
In248       O256   2.238       .  S
In248       O257   2.250       .  S
In248       O260   2.253       .  S
C249        O255   1.263       .  A
C249        O257   1.258       .  A
C249        C323   1.472       .  S
O250        C258   1.260       .  A
O251        C258   1.259       .  A
C252        O259   1.257       .  A
C252        O253   1.262       .  A
C252       C1108   1.443       .  S
C254        O256   1.259       .  A
C254        O260   1.261       .  A
C254        C686   1.436       .  S
C258        C716   1.438       .  S
In261       O263   2.253       .  S
In261       O264   2.257       .  S
In261       O272   2.241       .  S
In261       O266   2.240       .  S
In261       O268   2.239       .  S
In261       O269   2.261       .  S
In261       O270   2.243       .  S
In261       O273   2.249       .  S
C262        O268   1.259       .  A
C262        O270   1.260       .  A
C262        C660   1.430       .  S
O263        C271   1.257       .  A
O264        C271   1.260       .  A
C265        O272   1.260       .  A
C265        O266   1.260       .  A
C265        C672   1.432   1_565  S
C267        O269   1.261       .  A
C267        O273   1.257       .  A
C267        C418   1.468       .  S
C271        C297   1.466       .  S
In274       O276   2.259       .  S
In274       O277   2.251       .  S
In274       O285   2.247       .  S
In274       O279   2.242       .  S
In274       O281   2.237   1_655  S
In274       O282   2.260       .  S
In274       O283   2.240   1_655  S
In274       O286   2.259       .  S
C275        O281   1.259       .  A
C275        O283   1.260       .  A
C275        C658   1.430       .  S
O276        C284   1.259       .  A
O277        C284   1.261       .  A
C278        O285   1.260       .  A
C278        O279   1.259       .  A
C278        C644   1.434       .  S
C280        O282   1.260       .  A
C280        O286   1.258       .  A
C280        C301   1.470       .  S
In287       O289   2.248       .  S
In287       O290   2.258       .  S
In287       O298   2.257       .  S
In287       O292   2.235       .  S
In287       O294   2.239       .  S
In287       O295   2.266       .  S
In287       O296   2.245       .  S
In287       O299   2.239       .  S
C288        O294   1.259       .  A
C288        O296   1.259       .  A
C288        C630   1.432       .  S
O289        C297   1.257       .  A
O290        C297   1.261       .  A
C291        O298   1.261       .  A
C291        O292   1.258       .  A
C291        C618   1.435       .  S
C293        O295   1.262       .  A
C293        O299   1.258       .  A
C293        C994   1.438       .  S
In300       O302   2.251   1_455  S
In300       O303   2.237       .  S
In300       O311   2.237       .  S
In300       O305   2.270   1_455  S
In300       O307   2.261   1_455  S
In300       O308   2.244       .  S
In300       O309   2.248       .  S
In300       O312   2.240       .  S
C301        O307   1.263       .  A
C301        O309   1.259   1_655  A
O302        C310   1.261       .  A
O303        C310   1.259   1_455  A
C304        O311   1.257   1_655  A
C304        O305   1.262       .  A
C304        C968   1.439       .  S
C306        O308   1.261       .  A
C306        O312   1.259       .  A
C306        C632   1.433       .  S
C310        C602   1.434       .  S
In313       O315   2.261       .  S
In313       O316   2.256       .  S
In313       O324   2.246       .  S
In313       O318   2.254       .  S
In313       O320   2.252       .  S
In313       O321   2.247       .  S
In313       O322   2.246       .  S
In313       O325   2.261       .  S
C314        O320   1.260       .  A
C314        O322   1.259       .  A
C314        C646   1.436       .  S
O315        C323   1.259       .  A
O316        C323   1.261       .  A
C317        O324   1.259       .  A
C317        O318   1.260       .  A
C317        C588   1.437       .  S
C319        O321   1.262       .  A
C319        O325   1.261       .  A
C319        C392   1.469       .  S
In326       O328   2.256       .  S
In326       O329   2.240       .  S
In326       O337   2.235   1_655  S
In326       O331   2.241   1_655  S
In326       O333   2.239       .  S
In326       O334   2.253   1_655  S
In326       O335   2.242       .  S
In326       O338   2.236       .  S
C327        O333   1.259       .  A
C327        O335   1.259       .  A
C327        C576   1.431       .  S
O328        C336   1.258       .  A
O329        C336   1.260       .  A
C330        O337   1.259       .  A
C330        O331   1.259       .  A
C330        C560   1.429       .  S
C332        O334   1.262   1_655  A
C332        O338   1.258       .  A
C332        C444   1.462   1_655  S
C336        C340   1.463       .  S
In339       O341   2.245       .  S
In339       O342   2.250       .  S
In339       O350   2.239       .  S
In339       O344   2.272       .  S
In339       O346   2.262       .  S
In339       O347   2.238       .  S
In339       O348   2.232       .  S
In339       O351   2.254       .  S
C340        O346   1.263       .  A
C340        O348   1.257       .  A
O341        C349   1.258       .  A
O342        C349   1.260       .  A
C343        O350   1.258       .  A
C343        O344   1.263       .  A
C343        C744   1.442       .  S
C345        O347   1.261       .  A
C345        O351   1.263       .  A
C345        C702   1.438       .  S
C349        C546   1.434       .  S
In352       O354   2.247       .  S
In352       O355   2.237       .  S
In352       O363   2.236       .  S
In352       O357   2.264       .  S
In352       O359   2.255       .  S
In352       O360   2.244       .  S
In352       O361   2.236       .  S
In352       O364   2.244       .  S
C353        O359   1.263       .  A
C353        O361   1.258       .  A
C353        C371   1.463       .  S
O354        C362   1.261       .  A
O355        C362   1.261       .  A
C356        O363   1.257       .  A
C356        O357   1.262       .  A
C356        C730   1.437       .  S
C358        O360   1.261       .  A
C358        O364   1.259       .  A
C358        C548   1.434   1_565  S
C362        C534   1.435       .  S
In365       O367   2.253       .  S
In365       O368   2.250       .  S
In365       O376   2.245       .  S
In365       O370   2.235       .  S
In365       O372   2.240       .  S
In365       O373   2.248       .  S
In365       O374   2.241       .  S
In365       O377   2.251       .  S
C366        O372   1.260       .  A
C366        O374   1.259       .  A
C366        C574   1.431       .  S
O367        C375   1.257       .  A
O368        C375   1.261       .  A
C369        O376   1.261       .  A
C369        O370   1.260       .  A
C369        C590   1.433       .  S
C371        O373   1.260       .  A
C371        O377   1.258       .  A
C375        C379   1.465       .  S
In378       O380   2.243       .  S
In378       O381   2.235       .  S
In378       O389   2.230       .  S
In378       O383   2.262       .  S
In378       O385   2.259       .  S
In378       O386   2.241       .  S
In378       O387   2.232       .  S
In378       O390   2.236       .  S
C379        O385   1.265       .  A
C379        O387   1.258       .  A
O380        C388   1.261       .  A
O381        C388   1.261       .  A
C382        O389   1.258       .  A
C382        O383   1.265       .  A
C382        C798   1.438       .  S
C384        O386   1.261       .  A
C384        O390   1.260       .  A
C384        C520   1.432       .  S
C388        C616   1.434       .  S
In391       O393   2.241       .  S
In391       O394   2.248       .  S
In391       O402   2.243       .  S
In391       O396   2.267       .  S
In391       O398   2.268       .  S
In391       O399   2.238       .  S
In391       O400   2.241       .  S
In391       O403   2.257       .  S
C392        O398   1.263       .  A
C392        O400   1.258       .  A
O393        C401   1.259       .  A
O394        C401   1.260       .  A
C395        O402   1.257       .  A
C395        O396   1.262       .  A
C395        C786   1.440       .  S
C397        O399   1.259       .  A
C397        O403   1.261       .  A
C397        C504   1.436       .  S
C401        C518   1.433       .  S
In404       O406   2.261       .  S
In404       O407   2.240       .  S
In404       O415   2.244       .  S
In404       O409   2.272       .  S
In404       O411   2.256       .  S
In404       O412   2.245       .  S
In404       O413   2.245       .  S
In404       O416   2.255       .  S
C405        O411   1.261       .  A
C405        O413   1.258       .  A
C405        C436   1.465       .  S
O406        C414   1.260       .  A
O407        C414   1.258       .  A
C408        O415   1.256       .  A
C408        O409   1.260       .  A
C408        C940   1.440       .  S
C410        O412   1.258       .  A
C410        O416   1.260       .  A
C410        C490   1.436       .  S
C414        C688   1.437       .  S
In417       O419   2.235   1_565  S
In417       O420   2.251   1_565  S
In417       O428   2.243       .  S
In417       O422   2.271       .  S
In417       O424   2.252       .  S
In417       O425   2.243       .  S
In417       O426   2.250       .  S
In417       O429   2.251       .  S
C418        O424   1.263       .  A
C418        O426   1.260       .  A
O419        C427   1.258       .  A
O420        C427   1.261       .  A
C421        O428   1.258       .  A
C421        O422   1.262       .  A
C421        C912   1.442       .  S
C423        O425   1.260       .  A
C423        O429   1.261       .  A
C423        C532   1.436       .  S
C427        C492   1.433       .  S
In430       O432   2.256       .  S
In430       O433   2.241       .  S
In430       O441   2.239       .  S
In430       O435   2.242       .  S
In430       O437   2.252       .  S
In430       O438   2.244       .  S
In430       O439   2.227       .  S
In430       O442   2.248       .  S
C431        O437   1.261       .  A
C431        O439   1.258       .  A
C431        C674   1.431       .  S
O432        C440   1.260       .  A
O433        C440   1.261       .  A
C434        O441   1.258       .  A
C434        O435   1.260       .  A
C434        C562   1.430       .  S
C436        O438   1.262       .  A
C436        O442   1.260       .  A
C440        C457   1.466       .  S
In443       O445   2.231       .  S
In443       O446   2.249       .  S
In443       O454   2.234       .  S
In443       O448   2.262   1_455  S
In443       O450   2.240   1_455  S
In443       O451   2.235       .  S
In443       O452   2.245       .  S
In443       O455   2.243   1_455  S
C444        O450   1.262   1_455  A
C444        O452   1.260       .  A
O445        C453   1.258       .  A
O446        C453   1.261       .  A
C447        O454   1.258       .  A
C447        O448   1.263   1_455  A
C447        C856   1.438       .  S
C449        O451   1.261       .  A
C449        O455   1.261   1_455  A
C449        C604   1.434       .  S
C453        C476   1.431       .  S
In456       O458   2.252       .  S
In456       O459   2.238       .  S
In456       O467   2.242       .  S
In456       O461   2.269       .  S
In456       O463   2.264       .  S
In456       O464   2.248       .  S
In456       O465   2.240       .  S
In456       O468   2.245       .  S
C457        O463   1.262       .  A
C457        O465   1.258       .  A
O458        C466   1.261       .  A
O459        C466   1.259       .  A
C460        O467   1.257       .  A
C460        O461   1.261       .  A
C460        C828   1.440       .  S
C462        O464   1.259       .  A
C462        O468   1.259       .  A
C462        C478   1.433       .  S
C466        C506   1.436       .  S
C469        C477   1.438       .  S
C469        C470   1.402       .  A
C469        C474   1.401       .  A
C470        C471   1.398       .  A
C470        H479   1.083       .  S
C471        C472   1.402       .  A
C471        H480   1.084       .  S
C472        C475   1.437       .  S
C472        C473   1.400       .  A
C473        C474   1.397       .  A
C473        H481   1.083       .  S
C474        H482   1.084       .  S
C475        C476   1.204       .  T
C477        C478   1.205       .  T
C483        C491   1.438       .  S
C483        C484   1.401       .  A
C483        C488   1.401       .  A
C484        C485   1.398       .  A
C484        H493   1.084       .  S
C485        C486   1.401       .  A
C485        H494   1.083       .  S
C486        C489   1.440       .  S
C486        C487   1.402       .  A
C487        C488   1.399       .  A
C487        H495   1.084       .  S
C488        H496   1.083       .  S
C489        C490   1.206       .  T
C491        C492   1.205       .  T
C497        C505   1.441       .  S
C497        C498   1.402       .  A
C497        C502   1.401       .  A
C498        C499   1.401       .  A
C498        H507   1.083       .  S
C499        C500   1.402       .  A
C499        H508   1.083       .  S
C500        C503   1.441       .  S
C500        C501   1.401       .  A
C501        C502   1.398       .  A
C501        H509   1.084       .  S
C502        H510   1.083       .  S
C503        C504   1.207       .  T
C505        C506   1.206       .  T
C511        C519   1.437       .  S
C511        C512   1.401       .  A
C511        C516   1.401       .  A
C512        C513   1.398       .  A
C512        H521   1.084       .  S
C513        C514   1.401       .  A
C513        H522   1.083       .  S
C514        C517   1.438       .  S
C514        C515   1.401       .  A
C515        C516   1.398       .  A
C515        H523   1.084       .  S
C516        H524   1.083       .  S
C517        C518   1.205       .  T
C519        C520   1.204       .  T
C525        C533   1.440       .  S
C525        C526   1.401       .  A
C525        C530   1.401       .  A
C526        C527   1.399       .  A
C526        H535   1.084       .  S
C527        C528   1.401       .  A
C527        H536   1.083       .  S
C528        C531   1.441       .  S
C528        C529   1.402       .  A
C529        C530   1.400       .  A
C529        H537   1.084       .  S
C530        H538   1.083       .  S
C531        C532   1.207       .  T
C533        C534   1.206       .  T
C539        C547   1.438       .  S
C539        C540   1.402       .  A
C539        C544   1.401       .  A
C540        C541   1.399       .  A
C540        H549   1.084       .  S
C541        C542   1.402       .  A
C541        H550   1.084       .  S
C542        C545   1.439       .  S
C542        C543   1.401       .  A
C543        C544   1.397       .  A
C543        H551   1.084       .  S
C544        H552   1.083       .  S
C545        C546   1.205       .  T
C547        C548   1.205       .  T
C553        C561   1.435       .  S
C553        C554   1.400       .  A
C553        C558   1.401       .  A
C554        C555   1.396       .  A
C554        H563   1.083       .  S
C555        C556   1.400       .  A
C555        H564   1.084       .  S
C556        C559   1.434       .  S
C556        C557   1.401       .  A
C557        C558   1.398       .  A
C557        H565   1.083       .  S
C558        H566   1.084       .  S
C559        C560   1.202       .  T
C561        C562   1.203       .  T
C567        C575   1.435       .  S
C567        C568   1.401       .  A
C567        C572   1.400       .  A
C568        C569   1.397       .  A
C568        H577   1.084       .  S
C569        C570   1.401       .  A
C569        H578   1.084       .  S
C570        C573   1.436       .  S
C570        C571   1.401       .  A
C571        C572   1.397       .  A
C571        H579   1.084       .  S
C572        H580   1.083       .  S
C573        C574   1.203   1_545  T
C575        C576   1.203       .  T
C581        C589   1.439       .  S
C581        C582   1.401       .  A
C581        C586   1.401       .  A
C582        C583   1.400       .  A
C582        H591   1.083       .  S
C583        C584   1.402       .  A
C583        H592   1.083       .  S
C584        C587   1.441       .  S
C584        C585   1.401       .  A
C585        C586   1.398       .  A
C585        H593   1.083       .  S
C586        H594   1.084       .  S
C587        C588   1.207       .  T
C589        C590   1.205       .  T
C595        C603   1.439       .  S
C595        C596   1.401       .  A
C595        C600   1.401   1_455  A
C596        C597   1.398       .  A
C596        H605   1.083       .  S
C597        C598   1.401   1_455  A
C597        H606   1.084       .  S
C598        C601   1.439       .  S
C598        C599   1.401       .  A
C599        C600   1.399       .  A
C599        H607   1.083       .  S
C600        H608   1.084       .  S
C601        C602   1.205       .  T
C603        C604   1.205       .  T
C609        C617   1.440       .  S
C609        C610   1.402       .  A
C609        C614   1.401       .  A
C610        C611   1.399       .  A
C610        H619   1.083       .  S
C611        C612   1.401       .  A
C611        H620   1.084       .  S
C612        C615   1.439       .  S
C612        C613   1.401       .  A
C613        C614   1.399       .  A
C613        H621   1.083       .  S
C614        H622   1.084       .  S
C615        C616   1.205       .  T
C617        C618   1.206       .  T
C623        C631   1.437       .  S
C623        C624   1.400       .  A
C623        C628   1.402       .  A
C624        C625   1.397       .  A
C624        H633   1.084       .  S
C625        C626   1.400       .  A
C625        H634   1.084       .  S
C626        C629   1.437       .  S
C626        C627   1.402       .  A
C627        C628   1.399       .  A
C627        H635   1.084       .  S
C628        H636   1.083       .  S
C629        C630   1.204       .  T
C631        C632   1.204       .  T
C637        C645   1.441       .  S
C637        C638   1.402       .  A
C637        C642   1.401       .  A
C638        C639   1.400       .  A
C638        H647   1.084       .  S
C639        C640   1.402       .  A
C639        H648   1.083       .  S
C640        C643   1.440       .  S
C640        C641   1.401       .  A
C641        C642   1.398       .  A
C641        H649   1.084       .  S
C642        H650   1.083       .  S
C643        C644   1.206       .  T
C645        C646   1.206       .  T
C651        C659   1.435       .  S
C651        C652   1.401       .  A
C651        C656   1.401       .  A
C652        C653   1.397       .  A
C652        H661   1.084       .  S
C653        C654   1.400       .  A
C653        H662   1.084       .  S
C654        C657   1.434       .  S
C654        C655   1.401       .  A
C655        C656   1.397       .  A
C655        H663   1.084       .  S
C656        H664   1.083       .  S
C657        C658   1.203       .  T
C659        C660   1.203       .  T
C665        C673   1.437       .  S
C665        C666   1.400       .  A
C665        C670   1.402       .  A
C666        C667   1.397       .  A
C666        H675   1.084       .  S
C667        C668   1.401       .  A
C667        H676   1.083       .  S
C668        C671   1.437       .  S
C668        C669   1.401       .  A
C669        C670   1.398       .  A
C669        H677   1.084       .  S
C670        H678   1.083       .  S
C671        C672   1.204       .  T
C673        C674   1.204       .  T
C679        C687   1.442       .  S
C679        C680   1.401       .  A
C679        C684   1.402       .  A
C680        C681   1.399       .  A
C680        H689   1.083       .  S
C681        C682   1.401       .  A
C681        H690   1.083       .  S
C682        C685   1.440       .  S
C682        C683   1.402       .  A
C683        C684   1.400       .  A
C683        H691   1.083       .  S
C684        H692   1.083       .  S
C685        C686   1.206       .  T
C687        C688   1.207       .  T
C693        C701   1.443       .  S
C693        C694   1.402       .  A
C693        C698   1.401       .  A
C694        C695   1.401       .  A
C694        H703   1.083   1_655  S
C695        C696   1.402       .  A
C695        H704   1.084   1_655  S
C696        C699   1.441       .  S
C696        C697   1.401       .  A
C697        C698   1.398       .  A
C697        H705   1.083       .  S
C698        H706   1.084       .  S
C699        C700   1.206       .  T
C701        C702   1.208       .  T
C707        C715   1.442       .  S
C707        C708   1.402       .  A
C707        C712   1.402       .  A
C708        C709   1.400       .  A
C708        H717   1.084       .  S
C709        C710   1.402       .  A
C709        H718   1.083       .  S
C710        C713   1.440       .  S
C710        C711   1.400       .  A
C711        C712   1.399       .  A
C711        H719   1.084       .  S
C712        H720   1.083       .  S
C713        C714   1.205       .  T
C715        C716   1.207       .  T
C721        C729   1.442       .  S
C721        C722   1.401       .  A
C721        C726   1.402       .  A
C722        C723   1.400       .  A
C722        H731   1.083       .  S
C723        C724   1.402       .  A
C723        H732   1.083       .  S
C724        C727   1.443       .  S
C724        C725   1.402       .  A
C725        C726   1.400       .  A
C725        H733   1.083       .  S
C726        H734   1.083       .  S
C727        C728   1.208       .  T
C729        C730   1.207       .  T
C735        C743   1.447       .  S
C735        C736   1.401       .  A
C735        C740   1.404   1_655  A
C736        C737   1.400       .  A
C736        H745   1.084       .  S
C737        C738   1.402       .  A
C737        H746   1.084       .  S
C738        C741   1.448       .  S
C738        C739   1.404   1_655  A
C739        C740   1.405       .  A
C739        H747   1.083       .  S
C740        H748   1.083       .  S
C741        C742   1.211       .  T
C743        C744   1.210       .  T
C749        C757   1.441       .  S
C749        C750   1.402       .  A
C749        C754   1.401       .  A
C750        C751   1.400       .  A
C750        H759   1.084       .  S
C751        C752   1.402       .  A
C751        H760   1.084       .  S
C752        C755   1.440       .  S
C752        C753   1.401       .  A
C753        C754   1.398       .  A
C753        H761   1.084       .  S
C754        H762   1.083       .  S
C755        C756   1.206       .  T
C757        C758   1.206       .  T
C763        C771   1.438       .  S
C763        C764   1.401       .  A
C763        C768   1.402       .  A
C764        C765   1.397       .  A
C764        H773   1.083       .  S
C765        C766   1.400       .  A
C765        H774   1.084       .  S
C766        C769   1.438       .  S
C766        C767   1.402       .  A
C767        C768   1.400       .  A
C767        H775   1.083       .  S
C768        H776   1.084       .  S
C769        C770   1.204   1_545  T
C771        C772   1.205       .  T
C777        C785   1.444       .  S
C777        C778   1.403       .  A
C777        C782   1.402       .  A
C778        C779   1.401       .  A
C778        H787   1.083       .  S
C779        C780   1.402       .  A
C779        H788   1.083       .  S
C780        C783   1.443       .  S
C780        C781   1.401       .  A
C781        C782   1.400       .  A
C781        H789   1.083       .  S
C782        H790   1.083       .  S
C783        C784   1.207       .  T
C785        C786   1.209       .  T
C791        C799   1.443       .  S
C791        C792   1.402       .  A
C791        C796   1.402       .  A
C792        C793   1.401       .  A
C792        H801   1.083       .  S
C793        C794   1.402       .  A
C793        H802   1.083       .  S
C794        C797   1.443       .  S
C794        C795   1.402       .  A
C795        C796   1.400       .  A
C795        H803   1.083       .  S
C796        H804   1.084       .  S
C797        C798   1.208       .  T
C799        C800   1.207       .  T
C805        C813   1.439       .  S
C805        C806   1.402       .  A
C805        C810   1.400       .  A
C806        C807   1.399       .  A
C806        H815   1.084       .  S
C807        C808   1.402       .  A
C807        H816   1.083       .  S
C808        C811   1.440       .  S
C808        C809   1.401       .  A
C809        C810   1.398       .  A
C809        H817   1.084       .  S
C810        H818   1.083       .  S
C811        C812   1.206       .  T
C813        C814   1.205       .  T
C819        C827   1.445       .  S
C819        C820   1.402       .  A
C819        C824   1.402       .  A
C820        C821   1.402       .  A
C820        H829   1.083       .  S
C821        C822   1.403       .  A
C821        H830   1.083       .  S
C822        C825   1.445       .  S
C822        C823   1.402       .  A
C823        C824   1.401       .  A
C823        H831   1.083       .  S
C824        H832   1.083       .  S
C825        C826   1.209       .  T
C827        C828   1.209       .  T
C833        C841   1.438       .  S
C833        C834   1.400       .  A
C833        C838   1.402       .  A
C834        C835   1.396       .  A
C834        H843   1.084       .  S
C835        C836   1.400       .  A
C835        H844   1.084       .  S
C836        C839   1.437       .  S
C836        C837   1.402       .  A
C837        C838   1.400       .  A
C837        H845   1.083       .  S
C838        H846   1.083       .  S
C839        C840   1.205       .  T
C841        C842   1.205       .  T
C847        C855   1.443       .  S
C847        C848   1.402       .  A
C847        C852   1.402       .  A
C848        C849   1.400       .  A
C848        H857   1.083       .  S
C849        C850   1.402       .  A
C849        H858   1.083       .  S
C850        C853   1.443       .  S
C850        C851   1.402       .  A
C851        C852   1.401       .  A
C851        H859   1.083   1_655  S
C852        H860   1.083   1_655  S
C853        C854   1.208   1_655  T
C855        C856   1.208   1_655  T
C861        C869   1.440       .  S
C861        C862   1.401       .  A
C861        C866   1.402       .  A
C862        C863   1.400       .  A
C862        H871   1.083       .  S
C863        C864   1.402       .  A
C863        H872   1.083       .  S
C864        C867   1.439       .  S
C864        C865   1.401       .  A
C865        C866   1.398       .  A
C865        H873   1.084       .  S
C866        H874   1.083       .  S
C867        C868   1.206       .  T
C869        C870   1.206       .  T
C875        C883   1.437       .  S
C875        C876   1.402       .  A
C875        C880   1.400       .  A
C876        C877   1.399       .  A
C876        H885   1.084   1_556  S
C877        C878   1.401       .  A
C877        H886   1.083   1_556  S
C878        C881   1.436       .  S
C878        C879   1.400       .  A
C879        C880   1.396       .  A
C879        H887   1.084       .  S
C880        H888   1.083       .  S
C881        C882   1.203       .  T
C883        C884   1.204       .  T
C889        C897   1.440       .  S
C889        C890   1.401       .  A
C889        C894   1.402       .  A
C890        C891   1.399       .  A
C890        H899   1.083       .  S
C891        C892   1.402       .  A
C891        H900   1.084       .  S
C892        C895   1.440       .  S
C892        C893   1.401       .  A
C893        C894   1.399       .  A
C893        H901   1.083       .  S
C894        H902   1.084       .  S
C895        C896   1.206       .  T
C897        C898   1.206       .  T
C903        C911   1.447       .  S
C903        C904   1.401       .  A
C903        C908   1.404       .  A
C904        C905   1.399       .  A
C904        H913   1.083       .  S
C905        C906   1.401       .  A
C905        H914   1.083       .  S
C906        C909   1.446       .  S
C906        C907   1.404       .  A
C907        C908   1.404       .  A
C907        H915   1.083       .  S
C908        H916   1.083       .  S
C909        C910   1.210       .  T
C911        C912   1.210       .  T
C917        C925   1.441       .  S
C917        C918   1.402       .  A
C917        C922   1.402       .  A
C918        C919   1.399       .  A
C918        H927   1.083       .  S
C919        C920   1.401       .  A
C919        H928   1.084       .  S
C920        C923   1.440       .  S
C920        C921   1.402       .  A
C921        C922   1.400       .  A
C921        H929   1.083       .  S
C922        H930   1.084       .  S
C923        C924   1.206       .  T
C925        C926   1.207       .  T
C931        C939   1.445       .  S
C931        C932   1.402       .  A
C931        C936   1.402       .  A
C932        C933   1.402       .  A
C932        H941   1.083       .  S
C933        C934   1.403       .  A
C933        H942   1.083       .  S
C934        C937   1.445       .  S
C934        C935   1.402       .  A
C935        C936   1.399       .  A
C935        H943   1.084       .  S
C936        H944   1.084       .  S
C937        C938   1.209       .  T
C939        C940   1.209       .  T
C945        C953   1.439       .  S
C945        C946   1.401       .  A
C945        C950   1.402       .  A
C946        C947   1.398       .  A
C946        H955   1.084       .  S
C947        C948   1.401       .  A
C947        H956   1.083       .  S
C948        C951   1.440       .  S
C948        C949   1.402       .  A
C949        C950   1.399       .  A
C949        H957   1.084       .  S
C950        H958   1.083       .  S
C951        C952   1.206       .  T
C953        C954   1.205       .  T
C959        C967   1.443       .  S
C959        C960   1.402       .  A
C959        C964   1.402       .  A
C960        C961   1.400       .  A
C960        H969   1.083       .  S
C961        C962   1.402       .  A
C961        H970   1.083       .  S
C962        C965   1.443       .  S
C962        C963   1.402       .  A
C963        C964   1.400       .  A
C963        H971   1.083       .  S
C964        H972   1.083       .  S
C965        C966   1.208       .  T
C967        C968   1.208       .  T
C973        C981   1.437       .  S
C973        C974   1.400       .  A
C973        C978   1.401       .  A
C974        C975   1.396       .  A
C974        H983   1.083   1_455  S
C975        C976   1.399       .  A
C975        H984   1.084   1_455  S
C976        C979   1.436       .  S
C976        C977   1.402       .  A
C977        C978   1.399       .  A
C977        H985   1.083       .  S
C978        H986   1.084       .  S
C979        C980   1.203       .  T
C981        C982   1.204       .  T
C987        C995   1.442       .  S
C987        C988   1.403       .  A
C987        C992   1.401       .  A
C988        C989   1.402       .  A
C988        H997   1.083       .  S
C989        C990   1.403       .  A
C989        H998   1.083       .  S
C990        C993   1.443       .  S
C990        C991   1.401       .  A
C991        C992   1.398       .  A
C991        H999   1.084       .  S
C992       H1000   1.084       .  S
C993        C994   1.208       .  T
C995        C996   1.207       .  T
C1001      C1009   1.438       .  S
C1001      C1002   1.400       .  A
C1001      C1006   1.402       .  A
C1002      C1003   1.397       .  A
C1002      H1011   1.084       .  S
C1003      C1004   1.401       .  A
C1003      H1012   1.083       .  S
C1004      C1007   1.437       .  S
C1004      C1005   1.401       .  A
C1005      C1006   1.399       .  A
C1005      H1013   1.084       .  S
C1006      H1014   1.083       .  S
C1007      C1008   1.204       .  T
C1009      C1010   1.205       .  T
C1015      C1023   1.433       .  S
C1015      C1016   1.400       .  A
C1015      C1020   1.400       .  A
C1016      C1017   1.396       .  A
C1016      H1025   1.084       .  S
C1017      C1018   1.400       .  A
C1017      H1026   1.084       .  S
C1018      C1021   1.433       .  S
C1018      C1019   1.400       .  A
C1019      C1020   1.396       .  A
C1019      H1027   1.084       .  S
C1020      H1028   1.084       .  S
C1021      C1022   1.202       .  T
C1023      C1024   1.202       .  T
C1029      C1037   1.441       .  S
C1029      C1030   1.401       .  A
C1029      C1034   1.402       .  A
C1030      C1031   1.399       .  A
C1030      H1039   1.083       .  S
C1031      C1032   1.401       .  A
C1031      H1040   1.084       .  S
C1032      C1035   1.439       .  S
C1032      C1033   1.401       .  A
C1033      C1034   1.399       .  A
C1033      H1041   1.083       .  S
C1034      H1042   1.084       .  S
C1035      C1036   1.205       .  T
C1037      C1038   1.207       .  T
C1043      C1051   1.435       .  S
C1043      C1044   1.400       .  A
C1043      C1048   1.401       .  A
C1044      C1045   1.397       .  A
C1044      H1053   1.083       .  S
C1045      C1046   1.400       .  A
C1045      H1054   1.083       .  S
C1046      C1049   1.435       .  S
C1046      C1047   1.401       .  A
C1047      C1048   1.397       .  A
C1047      H1055   1.084   1_556  S
C1048      H1056   1.084   1_556  S
C1049      C1050   1.203       .  T
C1051      C1052   1.203       .  T
C1057      C1065   1.438       .  S
C1057      C1058   1.401       .  A
C1057      C1062   1.401       .  A
C1058      C1059   1.399       .  A
C1058      H1067   1.084       .  S
C1059      C1060   1.401       .  A
C1059      H1068   1.083       .  S
C1060      C1063   1.440       .  S
C1060      C1061   1.402       .  A
C1061      C1062   1.398       .  A
C1061      H1069   1.084       .  S
C1062      H1070   1.083       .  S
C1063      C1064   1.206       .  T
C1065      C1066   1.204   1_545  T
C1071      C1079   1.443       .  S
C1071      C1072   1.402       .  A
C1071      C1076   1.402       .  A
C1072      C1073   1.399       .  A
C1072      H1081   1.083       .  S
C1073      C1074   1.402       .  A
C1073      H1082   1.084       .  S
C1074      C1077   1.442       .  S
C1074      C1075   1.402       .  A
C1075      C1076   1.400       .  A
C1075      H1083   1.083       .  S
C1076      H1084   1.083       .  S
C1077      C1078   1.207       .  T
C1079      C1080   1.208       .  T
C1085      C1093   1.441       .  S
C1085      C1086   1.401       .  A
C1085      C1090   1.402       .  A
C1086      C1087   1.398       .  A
C1086      H1095   1.083       .  S
C1087      C1088   1.401       .  A
C1087      H1096   1.084       .  S
C1088      C1091   1.440       .  S
C1088      C1089   1.402       .  A
C1089      C1090   1.401       .  A
C1089      H1097   1.083   1_655  S
C1090      H1098   1.084   1_655  S
C1091      C1092   1.206       .  T
C1093      C1094   1.206       .  T
C1099      C1107   1.447       .  S
C1099      C1100   1.403       .  A
C1099      C1104   1.403       .  A
C1100      C1101   1.401       .  A
C1100      H1109   1.083       .  S
C1101      C1102   1.402       .  A
C1101      H1110   1.083       .  S
C1102      C1105   1.444       .  S
C1102      C1103   1.402       .  A
C1103      C1104   1.402       .  A
C1103      H1111   1.083       .  S
C1104      H1112   1.083       .  S
C1105      C1106   1.208       .  T
C1107      C1108   1.210       .  T
C1113      C1121   1.436       .  S
C1113      C1114   1.401       .  A
C1113      C1118   1.400       .  A
C1114      C1115   1.398       .  A
C1114      H1123   1.084       .  S
C1115      C1116   1.401       .  A
C1115      H1124   1.083       .  S
C1116      C1119   1.438       .  S
C1116      C1117   1.401       .  A
C1117      C1118   1.398       .  A
C1117      H1125   1.083       .  S
C1118      H1126   1.084       .  S
C1119      C1120   1.205       .  T
C1121      C1122   1.204       .  T
C1127      C1135   1.439       .  S
C1127      C1128   1.402       .  A
C1127      C1132   1.400       .  A
C1128      C1129   1.400       .  A
C1128      H1137   1.083       .  S
C1129      C1130   1.401       .  A
C1129      H1138   1.084       .  S
C1130      C1133   1.439       .  S
C1130      C1131   1.401       .  A
C1131      C1132   1.397       .  A
C1131      H1139   1.083       .  S
C1132      H1140   1.084       .  S
C1133      C1134   1.205       .  T
C1135      C1136   1.206       .  T
