geometry optimzed in LAMMPS
_audit_creation_date              2020-11-30 
_audit_creation_method            'lammps2cif' 
_symmetry_space_group_name_H-M    'P1' 
_symmetry_Int_Tables_number       1 
_symmetry_cell_setting            triclinic 
loop_ 
_symmetry_equiv_pos_as_xyz 
  x,y,z 
_cell_length_a                    33.2232697 
_cell_length_b                    33.198961823423836 
_cell_length_c                    33.663180646017985 
_cell_angle_alpha                 90.27043334316367 
_cell_angle_beta                  89.53776780334131 
_cell_angle_gamma                 90.01083322769534 
loop_ 
_atom_site_label 
_atom_site_type_symbol 
_atom_site_fract_x 
_atom_site_fract_y 
_atom_site_fract_z 
_atom_site_charge 
C1          C  0.36098646  0.39174611  0.99699034     0.03500
C2          C  0.34397878  0.37730355  0.03253561    -0.12700
C3          C  0.31020497  0.35182611  0.03182889     0.01000
C4          C  0.29339934  0.34057405  0.32863119    -0.11200
C5          C  0.31106540  0.35336582  0.29282605     0.03500
C6          C  0.34475870  0.37908761  0.29380035    -0.10600
H7          H  0.35701202  0.38596709  0.06072592     0.09100
H8          H  0.26792102  0.32017046  0.32803011     0.06600
H9          H  0.35844058  0.38913846  0.26624823     0.06400
C10         C  0.07131816  0.36837844  0.99893283     0.03500
C11         C  0.08490571  0.35210677  0.29583859    -0.12700
C12         C  0.11015155  0.31804432  0.29498183     0.01000
C13         C  0.12185906  0.30025459  0.33084088    -0.11200
C14         C  0.11002502  0.31730461  0.03401913     0.03500
C15         C  0.08472821  0.35126315  0.03459135    -0.10600
H16         H  0.07575041  0.36591130  0.26824116     0.09100
H17         H  0.14199295  0.27455318  0.33034312     0.06600
H18         H  0.07555784  0.36446254  0.06274750     0.06400
C19         C  0.38443798  0.10163285  0.99482842     0.03500
C20         C  0.37023575  0.11818347  0.03082211    -0.12700
C21         C  0.34500459  0.15216579  0.03090934     0.01000
C22         C  0.33381955  0.16961410  0.32805569    -0.11200
C23         C  0.34632471  0.15228549  0.29188565     0.03500
C24         C  0.37170433  0.11838417  0.29207711    -0.10600
H25         H  0.37892129  0.10465077  0.05870565     0.09100
H26         H  0.31362132  0.19526295  0.32801830     0.06600
H27         H  0.38140851  0.10491892  0.26421573     0.06400
N28         N  0.47087207  0.42322523  0.00232631    -0.36300
N29         N  0.41546346  0.49193071  0.99670567    -0.56800
N30         N  0.48469617  0.04687265  0.99273760    -0.36300
N31         N  0.04008882  0.47816995  0.99817875    -0.56800
C32         C  0.43550133  0.40309043  0.99841364     0.27300
C33         C  0.00113716  0.39583940  0.99919724     0.27300
C34         C  0.45442397  0.07412785  0.99666675     0.27300
C35         C  0.02000400  0.06692376  0.99740426     0.27300
C36         C  0.38772351  0.46203262  0.99784911     0.35900
C37         C  0.39496520  0.02714540  0.99501812     0.35900
C38         C  0.06062131  0.44294452  0.99966352     0.35900
C39         C  0.06780307  0.00808790  0.99680243     0.35900
C40         C  0.44345731  0.36228087  0.99407441    -0.21600
C41         C  0.48460587  0.35772882  0.99458526    -0.21600
C42         C  0.47085676  0.11204914  0.00290131    -0.21500
C43         C  0.51200013  0.10752374  0.00336498    -0.21500
C44         C  0.34935403  0.47846317  0.99706858    -0.22600
C45         C  0.35392566  0.01953242  0.99520593    -0.22600
C46         C  0.10164896  0.45061502  0.99938373    -0.22600
C47         C  0.10618157  0.99169098  0.99750207    -0.22600
C48         C  0.39607365  0.42002100  0.99819191    -0.18000
C49         C  0.04332823  0.40375687  0.99982539    -0.18000
C50         C  0.05943103  0.05009169  0.99649450    -0.18000
C51         C  0.41231255  0.06627183  0.99489573    -0.18000
H52         H  0.42187016  0.33817349  0.99028163     0.15000
H53         H  0.00052302  0.32945775  0.99125561     0.15000
H54         H  0.45488010  0.14016310  0.00719558     0.15000
H55         H  0.03355350  0.13149122  0.00808064     0.15000
H56         H  0.32092406  0.46253960  0.99754883     0.13200
H57         H  0.32969947  0.04130285  0.99440409     0.13200
H58         H  0.12589997  0.42887582  0.00019349     0.13200
H59         H  0.13459529  0.00764349  0.99701768     0.13200
H60         H  0.47407370  0.45352435  0.00899149     0.26500
H61         H  0.48157006  0.01694953  0.98443296     0.26500
C62         C  0.09450299  0.07838652  0.99675679     0.03500
C63         C  0.11122246  0.09213483  0.29411056    -0.12700
C64         C  0.14530071  0.11726870  0.29403541     0.01100
C65         C  0.16268996  0.12877453  0.33023264    -0.11200
C66         C  0.14520308  0.11677091  0.03306695     0.03500
C67         C  0.11121166  0.09149098  0.03285954    -0.10600
H68         H  0.09777699  0.08314950  0.26621078     0.09100
H69         H  0.18841460  0.14887666  0.33028488     0.06600
H70         H  0.09771747  0.08204231  0.06071212     0.06400
C71         C  0.33000061  0.16726030  0.25411816     0.42800
N72         N  0.28898888  0.17377291  0.20562489     0.01700
C73         C  0.25536906  0.34105397  0.08799624    -0.06200
H74         H  0.23297072  0.36378672  0.24541675     0.07200
C75         C  0.12086618  0.26321212  0.23871776    -0.06500
Co76       Co  0.29995623  0.25189059  0.16240555     0.74200
N77         N  0.25523266  0.31644677  0.20668579    -0.25700
Co78       Co  0.21088728  0.30693990  0.16344889     0.74100
C79         C  0.12667632  0.30286865  0.25687811     0.42900
N80         N  0.16689072  0.17419147  0.20694081     0.01300
N81         N  0.16723419  0.29626104  0.20725955     0.01400
N82         N  0.31347800  0.30556646  0.08979461    -0.46600
H83         H  0.35652116  0.23054878  0.24409113     0.07200
N84         N  0.28931226  0.29593406  0.20589184     0.01700
N85         N  0.16707855  0.29587658  0.12056048     0.01400
C86         C  0.12690953  0.30194064  0.07137411     0.43000
N87         N  0.20107001  0.15383844  0.20713188    -0.25200
C88         C  0.33437749  0.20690115  0.08712306    -0.06100
N89         N  0.30033375  0.14868420  0.23392853    -0.46300
N90         N  0.15614651  0.32076203  0.09192701    -0.46500
C91         C  0.32804239  0.16755404  0.06862638     0.42800
N92         N  0.28882184  0.29524518  0.11916857     0.01700
N93         N  0.20080879  0.15339661  0.11950485    -0.25200
N94         N  0.30941609  0.20792192  0.20595983    -0.25700
N95         N  0.16671327  0.17386916  0.12028150     0.01300
H96         H  0.22350300  0.10664276  0.08029182     0.07200
H97         H  0.10023008  0.23873827  0.08143723     0.07200
N98         N  0.25475576  0.31577661  0.11911021    -0.25700
N99         N  0.14676383  0.26212802  0.20778941    -0.25300
N100        N  0.28847247  0.17356171  0.11895640     0.01700
C101        C  0.29627547  0.33731866  0.25463403     0.43100
C102        C  0.20023254  0.12818254  0.23794222    -0.06600
N103        N  0.14670530  0.26169837  0.12014869    -0.25300
H104        H  0.10003985  0.23959050  0.24695691     0.07200
N105        N  0.31456889  0.30737489  0.23409535    -0.46600
H106        H  0.22390416  0.10743671  0.24586993     0.07200
C107        C  0.16032198  0.13329707  0.07088136     0.42900
C108        C  0.33561899  0.20690948  0.23619956    -0.06100
Co109      Co  0.24501838  0.16280029  0.16283084     0.73800
N110        N  0.14190841  0.16325526  0.23583696    -0.46300
C111        C  0.29454522  0.33447960  0.06906727     0.43200
N112        N  0.29900200  0.14871062  0.08973163    -0.46300
Co113      Co  0.15592555  0.21778196  0.16380015     0.73900
C114        C  0.12098588  0.26244850  0.08949185    -0.06600
C115        C  0.25652475  0.34282816  0.23711359    -0.06200
N116        N  0.30895384  0.20767350  0.11841714    -0.25700
N117        N  0.15618438  0.32139615  0.23608436    -0.46500
H118        H  0.23173878  0.36185041  0.08008118     0.07200
C119        C  0.19985627  0.12745684  0.08869338    -0.06600
Cl120      Cl  0.22794184  0.23485311  0.16319589    -0.49600
C121        C  0.16067869  0.13406716  0.25637878     0.42900
H122        H  0.35511526  0.23056511  0.07879084     0.07200
N123        N  0.14171494  0.16280131  0.09172875    -0.46300
C124        C  0.36098627  0.39174615  0.33032370     0.03500
C125        C  0.34397874  0.37730354  0.36586901    -0.12700
C126        C  0.31020482  0.35182623  0.36516240     0.01000
C127        C  0.29339935  0.34057426  0.66196427    -0.11200
C128        C  0.31106561  0.35336595  0.62615921     0.03500
C129        C  0.34475907  0.37908747  0.62713364    -0.10600
H130        H  0.35701217  0.38596697  0.39405926     0.09100
H131        H  0.26792087  0.32017088  0.66136307     0.06600
H132        H  0.35844112  0.38913828  0.59958159     0.06400
C133        C  0.07131812  0.36837843  0.33226610     0.03500
C134        C  0.08490536  0.35210691  0.62917190    -0.12700
C135        C  0.11015118  0.31804451  0.62831485     0.01000
C136        C  0.12185913  0.30025470  0.66417373    -0.11200
C137        C  0.11002502  0.31730473  0.36735255     0.03500
C138        C  0.08472816  0.35126324  0.36792467    -0.10600
H139        H  0.07574976  0.36591152  0.60157461     0.09100
H140        H  0.14199314  0.27455339  0.66367565     0.06600
H141        H  0.07555770  0.36446264  0.39608079     0.06400
C142        C  0.38443794  0.10163282  0.32816191     0.03500
C143        C  0.37023567  0.11818335  0.36415562    -0.12700
C144        C  0.34500471  0.15216582  0.36424294     0.01000
C145        C  0.33381934  0.16961406  0.66138905    -0.11200
C146        C  0.34632458  0.15228556  0.62521900     0.03500
C147        C  0.37170426  0.11838429  0.62541038    -0.10600
H148        H  0.37892104  0.10465049  0.39203912     0.09100
H149        H  0.31362100  0.19526282  0.66135168     0.06600
H150        H  0.38140837  0.10491905  0.59754899     0.06400
N151        N  0.47087198  0.42322517  0.33566017    -0.36300
N152        N  0.41546348  0.49193070  0.33003924    -0.56800
N153        N  0.48469616  0.04687255  0.32607146    -0.36300
N154        N  0.04008869  0.47817002  0.33151231    -0.56800
C155        C  0.43550122  0.40309033  0.33174724     0.27300
C156        C  0.00113707  0.39583932  0.33253073     0.27300
C157        C  0.45442395  0.07412788  0.33000045     0.27300
C158        C  0.02000399  0.06692374  0.33073812     0.27300
C159        C  0.38772350  0.46203259  0.33118252     0.35900
C160        C  0.39496525  0.02714537  0.32835156     0.35900
C161        C  0.06062116  0.44294454  0.33299666     0.35900
C162        C  0.06780299  0.00808784  0.33013580     0.35900
C163        C  0.44345723  0.36228087  0.32740777    -0.21600
C164        C  0.48460580  0.35772883  0.32791862    -0.21600
C165        C  0.47085673  0.11204914  0.33623500    -0.21500
C166        C  0.51200012  0.10752370  0.33669889    -0.21500
C167        C  0.34935403  0.47846313  0.33040187    -0.22600
C168        C  0.35392571  0.01953240  0.32853923    -0.22600
C169        C  0.10164881  0.45061496  0.33271650    -0.22600
C170        C  0.10618148  0.99169093  0.33083513    -0.22600
C171        C  0.39607357  0.42002097  0.33152528    -0.18000
C172        C  0.04332811  0.40375688  0.33315864    -0.18000
C173        C  0.05943098  0.05009162  0.32982803    -0.18000
C174        C  0.41231256  0.06627179  0.32822923    -0.18000
H175        H  0.42187006  0.33817353  0.32361466     0.15000
H176        H  0.00052298  0.32945777  0.32458856     0.15000
H177        H  0.45488008  0.14016311  0.34052912     0.15000
H178        H  0.03355349  0.13149112  0.34141456     0.15000
H179        H  0.32092409  0.46253954  0.33088198     0.13200
H180        H  0.32969954  0.04130283  0.32773731     0.13200
H181        H  0.12589975  0.42887569  0.33352591     0.13200
H182        H  0.13459518  0.00764347  0.33035056     0.13200
H183        H  0.47407358  0.45352378  0.34232540     0.26500
H184        H  0.48157010  0.01694987  0.31776699     0.26500
C185        C  0.09450295  0.07838646  0.33009030     0.03500
C186        C  0.11122233  0.09213520  0.62744391    -0.12700
C187        C  0.14530086  0.11726869  0.62736884     0.01100
C188        C  0.16269034  0.12877402  0.66356611    -0.11200
C189        C  0.14520285  0.11677113  0.36640044     0.03500
C190        C  0.11121162  0.09149092  0.36619305    -0.10600
H191        H  0.09777668  0.08315017  0.59954411     0.09100
H192        H  0.18841524  0.14887583  0.66361846     0.06600
H193        H  0.09771752  0.08204212  0.39404566     0.06400
C194        C  0.33000045  0.16726036  0.58745159     0.42800
N195        N  0.28898884  0.17377297  0.53895827     0.01700
C196        C  0.25536912  0.34105410  0.42132987    -0.06200
H197        H  0.23297087  0.36378684  0.57874998     0.07200
C198        C  0.12086572  0.26321247  0.57205078    -0.06500
Co199      Co  0.29995625  0.25189062  0.49573899     0.74200
N200        N  0.25523268  0.31644673  0.54001923    -0.25700
Co201      Co  0.21088734  0.30694002  0.49678235     0.74100
C202        C  0.12667562  0.30286910  0.59021096     0.42900
N203        N  0.16689082  0.17419162  0.54027427     0.01300
N204        N  0.16723410  0.29626126  0.54059293     0.01400
N205        N  0.31347799  0.30556645  0.42312799    -0.46600
H206        H  0.35652104  0.23054881  0.57742461     0.07200
N207        N  0.28931232  0.29593411  0.53922516     0.01700
N208        N  0.16707870  0.29587673  0.45389379     0.01400
C209        C  0.12690950  0.30194083  0.40470755     0.43000
N210        N  0.20107009  0.15383852  0.54046528    -0.25200
C211        C  0.33437767  0.20690102  0.42045682    -0.06100
N212        N  0.30033371  0.14868421  0.56726187    -0.46300
N213        N  0.15614667  0.32076214  0.42526027    -0.46500
C214        C  0.32804251  0.16755396  0.40196007     0.42800
N215        N  0.28882188  0.29524515  0.45250197     0.01700
N216        N  0.20080876  0.15339675  0.45283825    -0.25200
N217        N  0.30941596  0.20792202  0.53929331    -0.25700
N218        N  0.16671331  0.17386938  0.45361491     0.01300
H219        H  0.22350274  0.10664282  0.41362513     0.07200
H220        H  0.10023000  0.23873848  0.41477085     0.07200
N221        N  0.25475586  0.31577667  0.45244376    -0.25700
N222        N  0.14676373  0.26212825  0.54112274    -0.25300
N223        N  0.28847238  0.17356175  0.45228990     0.01700
C224        C  0.29627570  0.33731889  0.58796715     0.43100
C225        C  0.20023265  0.12818261  0.57127563    -0.06600
N226        N  0.14670539  0.26169855  0.45348207    -0.25300
H227        H  0.10003939  0.23959085  0.58028989     0.07200
N228        N  0.31456908  0.30737508  0.56742849    -0.46600
H229        H  0.22390426  0.10743677  0.57920336     0.07200
C230        C  0.16032183  0.13329733  0.40421480     0.42900
C231        C  0.33561876  0.20690957  0.56953309    -0.06100
Co232      Co  0.24501836  0.16280038  0.49616425     0.73800
N233        N  0.14190854  0.16325539  0.56917044    -0.46300
C234        C  0.29454523  0.33447975  0.40240083     0.43200
N235        N  0.29900197  0.14871061  0.42306519    -0.46300
Co236      Co  0.15592561  0.21778215  0.49713357     0.73900
C237        C  0.12098582  0.26244872  0.42282536    -0.06600
C238        C  0.25652488  0.34282824  0.57044689    -0.06200
N239        N  0.30895383  0.20767348  0.45175072    -0.25700
N240        N  0.15618398  0.32139650  0.56941752    -0.46500
H241        H  0.23173880  0.36185053  0.41341489     0.07200
C242        C  0.19985613  0.12745700  0.42202676    -0.06600
Cl243      Cl  0.22794186  0.23485325  0.49652941    -0.49600
C244        C  0.16067885  0.13406727  0.58971224     0.42900
H245        H  0.35511552  0.23056492  0.41212471     0.07200
N246        N  0.14171493  0.16280165  0.42506216    -0.46300
C247        C  0.36098655  0.39174597  0.66365704     0.03500
C248        C  0.34397890  0.37730331  0.69920230    -0.12700
C249        C  0.31020487  0.35182609  0.69849556     0.01000
C250        C  0.29339968  0.34057391  0.99529763    -0.11200
C251        C  0.31106580  0.35336570  0.95949254     0.03500
C252        C  0.34475916  0.37908737  0.96046695    -0.10600
H253        H  0.35701228  0.38596668  0.72739258     0.09100
H254        H  0.26792138  0.32017029  0.99469645     0.06600
H255        H  0.35844124  0.38913812  0.93291489     0.06400
C256        C  0.07131830  0.36837856  0.66559955     0.03500
C257        C  0.08490549  0.35210678  0.96250526    -0.12700
C258        C  0.11015136  0.31804439  0.96164838     0.01000
C259        C  0.12185905  0.30025460  0.99750737    -0.11200
C260        C  0.11002528  0.31730459  0.70068558     0.03500
C261        C  0.08472853  0.35126318  0.70125798    -0.10600
H262        H  0.07575006  0.36591135  0.93490790     0.09100
H263        H  0.14199306  0.27455330  0.99700949     0.06600
H264        H  0.07555829  0.36446250  0.72941420     0.06400
C265        C  0.38443795  0.10163295  0.66149514     0.03500
C266        C  0.37023578  0.11818346  0.69748892    -0.12700
C267        C  0.34500462  0.15216579  0.69757627     0.01000
C268        C  0.33381924  0.16961385  0.99472205    -0.11200
C269        C  0.34632455  0.15228527  0.95855209     0.03500
C270        C  0.37170435  0.11838410  0.95874361    -0.10600
H271        H  0.37892131  0.10465064  0.72537240     0.09100
H272        H  0.31362090  0.19526260  0.99468459     0.06600
H273        H  0.38140865  0.10491889  0.93088226     0.06400
N274        N  0.47087214  0.42322518  0.66899348    -0.36300
N275        N  0.41546353  0.49193071  0.66337257    -0.56800
N276        N  0.48469612  0.04687275  0.65940428    -0.36300
N277        N  0.04008881  0.47817004  0.66484574    -0.56800
C278        C  0.43550151  0.40309047  0.66508034     0.27300
C279        C  0.00113731  0.39583952  0.66586380     0.27300
C280        C  0.45442393  0.07412798  0.66333314     0.27300
C281        C  0.02000388  0.06692390  0.66407081     0.27300
C282        C  0.38772360  0.46203256  0.66451607     0.35900
C283        C  0.39496518  0.02714546  0.66168492     0.35900
C284        C  0.06062138  0.44294465  0.66633047     0.35900
C285        C  0.06780303  0.00808798  0.66346944     0.35900
C286        C  0.44345760  0.36228096  0.66074043    -0.21600
C287        C  0.48460614  0.35772900  0.66125117    -0.21600
C288        C  0.47085670  0.11204935  0.66956743    -0.21500
C289        C  0.51200006  0.10752393  0.67003131    -0.21500
C290        C  0.34935410  0.47846305  0.66373556    -0.22600
C291        C  0.35392565  0.01953244  0.66187283    -0.22600
C292        C  0.10164904  0.45061517  0.66605047    -0.22600
C293        C  0.10618156  0.99169112  0.66416901    -0.22600
C294        C  0.39607376  0.42002089  0.66485867    -0.18000
C295        C  0.04332836  0.40375698  0.66649224    -0.18000
C296        C  0.05943093  0.05009181  0.66316126    -0.18000
C297        C  0.41231250  0.06627192  0.66156233    -0.18000
H298        H  0.42187052  0.33817356  0.65694719     0.15000
H299        H  0.00052322  0.32945798  0.65792064     0.15000
H300        H  0.45488004  0.14016335  0.67386145     0.15000
H301        H  0.03355337  0.13149152  0.67474646     0.15000
H302        H  0.32092418  0.46253939  0.66421577     0.13200
H303        H  0.32969944  0.04130285  0.66107094     0.13200
H304        H  0.12590008  0.42887602  0.66686006     0.13200
H305        H  0.13459525  0.00764372  0.66368442     0.13200
H306        H  0.47407376  0.45352475  0.67565952     0.26500
H307        H  0.48156999  0.01694939  0.65109993     0.26500
C308        C  0.09450283  0.07838667  0.66342360     0.03500
C309        C  0.11122253  0.09213485  0.96077705    -0.12700
C310        C  0.14530097  0.11726844  0.96070191     0.01100
C311        C  0.16269045  0.12877400  0.99689913    -0.11200
C312        C  0.14520296  0.11677077  0.69973388     0.03500
C313        C  0.11121148  0.09149095  0.69952638    -0.10600
H314        H  0.09777696  0.08314966  0.93287727     0.09100
H315        H  0.18841533  0.14887584  0.99695135     0.06600
H316        H  0.09771725  0.08204225  0.72737894     0.06400
C317        C  0.33000066  0.16726008  0.92078457     0.42800
N318        N  0.28898884  0.17377296  0.87229147     0.01700
C319        C  0.25536900  0.34105391  0.75466298    -0.06200
H320        H  0.23297103  0.36378678  0.91208342     0.07200
C321        C  0.12086582  0.26321237  0.90538422    -0.06500
Co322      Co  0.29995616  0.25189057  0.82907223     0.74200
N323        N  0.25523270  0.31644669  0.87335253    -0.25700
Co324      Co  0.21088726  0.30693994  0.83011566     0.74100
C325        C  0.12667596  0.30286890  0.92354456     0.42900
N326        N  0.16689073  0.17419154  0.87360748     0.01300
N327        N  0.16723413  0.29626117  0.87392628     0.01400
N328        N  0.31347778  0.30556621  0.75646115    -0.46600
H329        H  0.35652128  0.23054856  0.91075778     0.07200
N330        N  0.28931230  0.29593401  0.87255844     0.01700
N331        N  0.16707857  0.29587663  0.78722716     0.01400
C332        C  0.12690990  0.30194048  0.73804047     0.43000
N333        N  0.20107002  0.15383851  0.87379847    -0.25200
C334        C  0.33437746  0.20690108  0.75378996    -0.06100
N335        N  0.30033379  0.14868408  0.90059492    -0.46300
N336        N  0.15614676  0.32076192  0.75859347    -0.46500
C337        C  0.32804248  0.16755392  0.73529338     0.42800
N338        N  0.28882169  0.29524505  0.78583520     0.01700
N339        N  0.20080873  0.15339668  0.78617155    -0.25200
N340        N  0.30941605  0.20792195  0.87262650    -0.25700
N341        N  0.16671325  0.17386930  0.78694815     0.01300
H342        H  0.22350274  0.10664248  0.74695878     0.07200
H343        H  0.10023038  0.23873811  0.74810377     0.07200
N344        N  0.25475571  0.31577658  0.78577697    -0.25700
N345        N  0.14676369  0.26212819  0.87445606    -0.25300
N346        N  0.28847240  0.17356171  0.78562323     0.01700
C347        C  0.29627578  0.33731866  0.92130051     0.43100
C348        C  0.20023256  0.12818239  0.90460861    -0.06600
N349        N  0.14670530  0.26169844  0.78681539    -0.25300
H350        H  0.10003943  0.23959078  0.91362329     0.07200
N351        N  0.31456909  0.30737486  0.90076179    -0.46600
H352        H  0.22390413  0.10743643  0.91253613     0.07200
C353        C  0.16032177  0.13329683  0.73754834     0.42900
C354        C  0.33561898  0.20690935  0.90286619    -0.06100
Co355      Co  0.24501832  0.16280041  0.82949752     0.73800
N356        N  0.14190843  0.16325514  0.90250357    -0.46300
C357        C  0.29454508  0.33447944  0.73573388     0.43200
N358        N  0.29900206  0.14871051  0.75639861    -0.46300
Co359      Co  0.15592550  0.21778209  0.83046684     0.73900
C360        C  0.12098604  0.26244845  0.75615841    -0.06600
C361        C  0.25652496  0.34282815  0.90378025    -0.06200
N362        N  0.30895373  0.20767349  0.78508394    -0.25700
N363        N  0.15618418  0.32139636  0.90275097    -0.46500
H364        H  0.23173873  0.36185040  0.74674798     0.07200
C365        C  0.19985608  0.12745663  0.75536031    -0.06600
Cl366      Cl  0.22794176  0.23485320  0.82986273    -0.49600
C367        C  0.16067879  0.13406698  0.92304527     0.42900
H368        H  0.35511524  0.23056503  0.74545778     0.07200
N369        N  0.14171484  0.16280129  0.75839552    -0.46300
C370        C  0.36098644  0.89174606  0.99699034     0.03500
C371        C  0.34397876  0.87730352  0.03253560    -0.12700
C372        C  0.31020497  0.85182605  0.03182890     0.01000
C373        C  0.29339935  0.84057417  0.32863112    -0.11200
C374        C  0.31106545  0.85336589  0.29282600     0.03500
C375        C  0.34475884  0.87908753  0.29380033    -0.10600
H376        H  0.35701200  0.88596707  0.06072591     0.09100
H377        H  0.26792104  0.82017057  0.32803000     0.06600
H378        H  0.35844080  0.88913831  0.26624823     0.06400
C379        C  0.07131813  0.86837849  0.99893282     0.03500
C380        C  0.08490568  0.85210676  0.29583859    -0.12700
C381        C  0.11015151  0.81804431  0.29498179     0.01000
C382        C  0.12185906  0.80025454  0.33084080    -0.11200
C383        C  0.11002510  0.81730464  0.03401907     0.03500
C384        C  0.08472819  0.85126315  0.03459132    -0.10600
H385        H  0.07575038  0.86591136  0.26824119     0.09100
H386        H  0.14199298  0.77455317  0.33034296     0.06600
H387        H  0.07555778  0.86446245  0.06274750     0.06400
C388        C  0.38443808  0.60163294  0.99482846     0.03500
C389        C  0.37023581  0.61818358  0.03082214    -0.12700
C390        C  0.34500463  0.65216589  0.03090933     0.01000
C391        C  0.33381962  0.66961422  0.32805568    -0.11200
C392        C  0.34632472  0.65228550  0.29188567     0.03500
C393        C  0.37170433  0.61838417  0.29207716    -0.10600
H394        H  0.37892125  0.60465087  0.05870570     0.09100
H395        H  0.31362148  0.69526311  0.32801826     0.06600
H396        H  0.38140842  0.60491883  0.26421580     0.06400
N397        N  0.47087204  0.92322515  0.00232657    -0.36300
N398        N  0.41546351  0.99193065  0.99670568    -0.56800
N399        N  0.48469618  0.54687261  0.99273783    -0.36300
N400        N  0.04008878  0.97817004  0.99817877    -0.56800
C401        C  0.43550134  0.90309033  0.99841389     0.27300
C402        C  0.00113711  0.89583942  0.99919738     0.27300
C403        C  0.45442400  0.57412788  0.99666682     0.27300
C404        C  0.02000399  0.56692374  0.99740446     0.27300
C405        C  0.38772355  0.96203254  0.99784910     0.35900
C406        C  0.39496518  0.52714547  0.99501812     0.35900
C407        C  0.06062125  0.94294459  0.99966345     0.35900
C408        C  0.06780306  0.50808784  0.99680243     0.35900
C409        C  0.44345739  0.86228078  0.99407474    -0.21600
C410        C  0.48460595  0.85772879  0.99458558    -0.21600
C411        C  0.47085682  0.61204917  0.00290130    -0.21500
C412        C  0.51200020  0.60752374  0.00336505    -0.21500
C413        C  0.34935405  0.97846305  0.99706855    -0.22600
C414        C  0.35392566  0.51953252  0.99520594    -0.22600
C415        C  0.10164891  0.95061504  0.99938356    -0.22600
C416        C  0.10618156  0.49169095  0.99750212    -0.22600
C417        C  0.39607367  0.92002090  0.99819194    -0.18000
C418        C  0.04332818  0.90375692  0.99982540    -0.18000
C419        C  0.05943101  0.55009164  0.99649460    -0.18000
C420        C  0.41231257  0.56627188  0.99489577    -0.18000
H421        H  0.42187029  0.83817333  0.99028191     0.15000
H422        H  0.00052304  0.82945773  0.99125589     0.15000
H423        H  0.45488020  0.64016316  0.00719549     0.15000
H424        H  0.03355349  0.63149125  0.00808060     0.15000
H425        H  0.32092412  0.96253942  0.99754874     0.13200
H426        H  0.32969947  0.54130298  0.99440414     0.13200
H427        H  0.12589988  0.92887579  0.00019324     0.13200
H428        H  0.13459526  0.50764352  0.99701767     0.13200
H429        H  0.47407365  0.95352435  0.00899159     0.26500
H430        H  0.48157007  0.51694957  0.98443327     0.26500
C431        C  0.09450295  0.57838648  0.99675689     0.03500
C432        C  0.11122242  0.59213487  0.29411056    -0.12700
C433        C  0.14530069  0.61726868  0.29403535     0.01100
C434        C  0.16269002  0.62877444  0.33023257    -0.11200
C435        C  0.14520299  0.61677094  0.03306699     0.03500
C436        C  0.11121164  0.59149092  0.03285963    -0.10600
H437        H  0.09777694  0.58314948  0.26621080     0.09100
H438        H  0.18841474  0.64887648  0.33028477     0.06600
H439        H  0.09771754  0.58204221  0.06071225     0.06400
C440        C  0.33000064  0.66726028  0.25411817     0.42800
N441        N  0.28898894  0.67377293  0.20562489     0.01700
C442        C  0.25536912  0.84105393  0.08799625    -0.06200
H443        H  0.23297064  0.86378670  0.24541674     0.07200
C444        C  0.12086633  0.76321210  0.23871781    -0.06500
Co445      Co  0.29995629  0.75189059  0.16240558     0.74200
N446        N  0.25523263  0.81644675  0.20668580    -0.25700
Co447      Co  0.21088729  0.80693992  0.16344887     0.74100
C448        C  0.12667631  0.80286869  0.25687808     0.42900
N449        N  0.16689082  0.67419151  0.20694081     0.01300
N450        N  0.16723415  0.79626119  0.20725950     0.01400
N451        N  0.31347797  0.80556631  0.08979457    -0.46600
H452        H  0.35652117  0.73054880  0.24409116     0.07200
N453        N  0.28931226  0.79593410  0.20589183     0.01700
N454        N  0.16707864  0.79587657  0.12056041     0.01400
C455        C  0.12690960  0.80194064  0.07137404     0.43000
N456        N  0.20107009  0.65383847  0.20713189    -0.25200
C457        C  0.33437748  0.70690116  0.08712311    -0.06100
N458        N  0.30033384  0.64868416  0.23392847    -0.46300
N459        N  0.15614666  0.82076197  0.09192687    -0.46500
C460        C  0.32804233  0.66755410  0.06862636     0.42800
N461        N  0.28882184  0.79524509  0.11916856     0.01700
N462        N  0.20080882  0.65339662  0.11950484    -0.25200
N463        N  0.30941612  0.70792195  0.20595987    -0.25700
N464        N  0.16671330  0.67386916  0.12028151     0.01300
H465        H  0.22350297  0.60664275  0.08029179     0.07200
H466        H  0.10023011  0.73873828  0.08143730     0.07200
N467        N  0.25475579  0.81577656  0.11911022    -0.25700
N468        N  0.14676392  0.76212809  0.20778942    -0.25300
N469        N  0.28847250  0.67356172  0.11895644     0.01700
C470        C  0.29627546  0.83731874  0.25463400     0.43100
C471        C  0.20023254  0.62818249  0.23794217    -0.06600
N472        N  0.14670538  0.76169837  0.12014865    -0.25300
H473        H  0.10004016  0.73959036  0.24695703     0.07200
N474        N  0.31456891  0.80737501  0.23409529    -0.46600
H475        H  0.22390409  0.60743660  0.24586990     0.07200
C476        C  0.16032194  0.63329707  0.07088140     0.42900
C477        C  0.33561899  0.70690950  0.23619961    -0.06100
Co478      Co  0.24501844  0.66280034  0.16283084     0.73800
N479        N  0.14190844  0.66325525  0.23583689    -0.46300
C480        C  0.29454526  0.83447954  0.06906729     0.43200
N481        N  0.29900196  0.64871065  0.08973163    -0.46300
Co482      Co  0.15592565  0.71778199  0.16380015     0.73900
C483        C  0.12098592  0.76244851  0.08949185    -0.06600
C484        C  0.25652468  0.84282815  0.23711360    -0.06200
N485        N  0.30895390  0.70767348  0.11841722    -0.25700
N486        N  0.15618429  0.82139630  0.23608430    -0.46500
H487        H  0.23173887  0.86185039  0.08008114     0.07200
C488        C  0.19985625  0.62745683  0.08869339    -0.06600
Cl489      Cl  0.22794191  0.73485314  0.16319590    -0.49600
C490        C  0.16067866  0.63406708  0.25637867     0.42900
H491        H  0.35511521  0.73056515  0.07879090     0.07200
N492        N  0.14171493  0.66280130  0.09172879    -0.46300
C493        C  0.36098636  0.89174609  0.33032371     0.03500
C494        C  0.34397864  0.87730370  0.36586901    -0.12700
C495        C  0.31020470  0.85182641  0.36516236     0.01000
C496        C  0.29339953  0.84057407  0.66196428    -0.11200
C497        C  0.31106567  0.85336589  0.62615921     0.03500
C498        C  0.34475904  0.87908752  0.62713363    -0.10600
H499        H  0.35701197  0.88596723  0.39405927     0.09100
H500        H  0.26792114  0.82017055  0.66136308     0.06600
H501        H  0.35844099  0.88913840  0.59958157     0.06400
C502        C  0.07131818  0.86837841  0.33226611     0.03500
C503        C  0.08490547  0.85210699  0.62917190    -0.12700
C504        C  0.11015131  0.81804459  0.62831485     0.01000
C505        C  0.12185912  0.80025471  0.66417372    -0.11200
C506        C  0.11002511  0.81730470  0.36735249     0.03500
C507        C  0.08472830  0.85126325  0.36792467    -0.10600
H508        H  0.07574991  0.86591167  0.60157462     0.09100
H509        H  0.14199309  0.77455336  0.66367570     0.06600
H510        H  0.07555798  0.86446272  0.39608080     0.06400
C511        C  0.38443801  0.60163294  0.32816198     0.03500
C512        C  0.37023574  0.61818348  0.36415568    -0.12700
C513        C  0.34500474  0.65216594  0.36424296     0.01000
C514        C  0.33381928  0.66961409  0.66138900    -0.11200
C515        C  0.34632463  0.65228558  0.62521899     0.03500
C516        C  0.37170436  0.61838433  0.62541041    -0.10600
H517        H  0.37892111  0.60465065  0.39203920     0.09100
H518        H  0.31362089  0.69526281  0.66135160     0.06600
H519        H  0.38140857  0.60491910  0.59754905     0.06400
N520        N  0.47087201  0.92322514  0.33566042    -0.36300
N521        N  0.41546358  0.99193060  0.33003924    -0.56800
N522        N  0.48469613  0.54687259  0.32607150    -0.36300
N523        N  0.04008872  0.97816996  0.33151230    -0.56800
C524        C  0.43550128  0.90309025  0.33174750     0.27300
C525        C  0.00113713  0.89583926  0.33253078     0.27300
C526        C  0.45442394  0.57412791  0.33000045     0.27300
C527        C  0.02000398  0.56692378  0.33073817     0.27300
C528        C  0.38772359  0.96203251  0.33118252     0.35900
C529        C  0.39496519  0.52714546  0.32835157     0.35900
C530        C  0.06062122  0.94294451  0.33299666     0.35900
C531        C  0.06780300  0.50808787  0.33013583     0.35900
C532        C  0.44345733  0.86228081  0.32740799    -0.21600
C533        C  0.48460590  0.85772885  0.32791866    -0.21600
C534        C  0.47085675  0.61204917  0.33623497    -0.21500
C535        C  0.51200012  0.60752371  0.33669886    -0.21500
C536        C  0.34935412  0.97846304  0.33040186    -0.22600
C537        C  0.35392567  0.51953248  0.32853924    -0.22600
C538        C  0.10164887  0.95061500  0.33271650    -0.22600
C539        C  0.10618149  0.49169090  0.33083511    -0.22600
C540        C  0.39607366  0.92002089  0.33152534    -0.18000
C541        C  0.04332819  0.90375684  0.33315865    -0.18000
C542        C  0.05943099  0.55009166  0.32982813    -0.18000
C543        C  0.41231254  0.56627188  0.32822929    -0.18000
H544        H  0.42187022  0.83817343  0.32361484     0.15000
H545        H  0.00052299  0.82945765  0.32458887     0.15000
H546        H  0.45488013  0.64016317  0.34052906     0.15000
H547        H  0.03355349  0.63149118  0.34141459     0.15000
H548        H  0.32092419  0.96253940  0.33088198     0.13200
H549        H  0.32969948  0.54130293  0.32773732     0.13200
H550        H  0.12589989  0.92887579  0.33352595     0.13200
H551        H  0.13459523  0.50764339  0.33035050     0.13200
H552        H  0.47407358  0.95352376  0.34232568     0.26500
H553        H  0.48157004  0.51694982  0.31776711     0.26500
C554        C  0.09450293  0.57838653  0.33009032     0.03500
C555        C  0.11122230  0.59213520  0.62744387    -0.12700
C556        C  0.14530085  0.61726869  0.62736878     0.01100
C557        C  0.16269037  0.62877403  0.66356605    -0.11200
C558        C  0.14520288  0.61677115  0.36640041     0.03500
C559        C  0.11121165  0.59149100  0.36619303    -0.10600
H560        H  0.09777661  0.58315020  0.59954408     0.09100
H561        H  0.18841522  0.64887590  0.66361837     0.06600
H562        H  0.09771758  0.58204218  0.39404564     0.06400
C563        C  0.33000064  0.66726040  0.58745153     0.42800
N564        N  0.28898897  0.67377310  0.53895827     0.01700
C565        C  0.25536900  0.84105415  0.42132986    -0.06200
H566        H  0.23297090  0.86378684  0.57875007     0.07200
C567        C  0.12086586  0.76321251  0.57205082    -0.06500
Co568      Co  0.29995628  0.75189072  0.49573898     0.74200
N569        N  0.25523268  0.81644676  0.54001923    -0.25700
Co570      Co  0.21088736  0.80694003  0.49678235     0.74100
C571        C  0.12667583  0.80286913  0.59021100     0.42900
N572        N  0.16689085  0.67419179  0.54027433     0.01300
N573        N  0.16723422  0.79626127  0.54059293     0.01400
N574        N  0.31347798  0.80556665  0.42312797    -0.46600
H575        H  0.35652116  0.73054891  0.57742476     0.07200
N576        N  0.28931233  0.79593415  0.53922514     0.01700
N577        N  0.16707873  0.79587673  0.45389379     0.01400
C578        C  0.12690967  0.80194079  0.40470745     0.43000
N579        N  0.20107014  0.65383875  0.54046535    -0.25200
C580        C  0.33437765  0.70690119  0.42045678    -0.06100
N581        N  0.30033384  0.64868431  0.56726183    -0.46300
N582        N  0.15614682  0.82076209  0.42526019    -0.46500
C583        C  0.32804255  0.66755410  0.40196005     0.42800
N584        N  0.28882191  0.79524529  0.45250198     0.01700
N585        N  0.20080875  0.65339678  0.45283830    -0.25200
N586        N  0.30941612  0.70792213  0.53929331    -0.25700
N587        N  0.16671329  0.67386941  0.45361495     0.01300
H588        H  0.22350279  0.60664287  0.41362520     0.07200
H589        H  0.10022994  0.73873857  0.41477089     0.07200
N590        N  0.25475585  0.81577674  0.45244377    -0.25700
N591        N  0.14676379  0.76212830  0.54112272    -0.25300
N592        N  0.28847247  0.67356182  0.45228993     0.01700
C593        C  0.29627573  0.83731891  0.58796714     0.43100
C594        C  0.20023264  0.62818270  0.57127558    -0.06600
N595        N  0.14670536  0.76169860  0.45348210    -0.25300
H596        H  0.10003945  0.73959093  0.58028986     0.07200
N597        N  0.31456908  0.80737510  0.56742846    -0.46600
H598        H  0.22390419  0.60743674  0.57920318     0.07200
C599        C  0.16032186  0.63329733  0.40421481     0.42900
C600        C  0.33561892  0.70690966  0.56953312    -0.06100
Co601      Co  0.24501841  0.66280052  0.49616428     0.73800
N602        N  0.14190852  0.66325543  0.56917041    -0.46300
C603        C  0.29454510  0.83447983  0.40240076     0.43200
N604        N  0.29900209  0.64871068  0.42306523    -0.46300
Co605      Co  0.15592560  0.71778223  0.49713358     0.73900
C606        C  0.12098583  0.76244877  0.42282536    -0.06600
C607        C  0.25652489  0.84282825  0.57044693    -0.06200
N608        N  0.30895386  0.70767359  0.45175072    -0.25700
N609        N  0.15618421  0.82139649  0.56941756    -0.46500
H610        H  0.23173867  0.86185058  0.41341499     0.07200
C611        C  0.19985614  0.62745701  0.42202682    -0.06600
Cl612      Cl  0.22794186  0.73485332  0.49652940    -0.49600
C613        C  0.16067881  0.63406727  0.58971217     0.42900
H614        H  0.35511550  0.73056512  0.41212472     0.07200
N615        N  0.14171494  0.66280164  0.42506218    -0.46300
C616        C  0.36098656  0.89174597  0.66365704     0.03500
C617        C  0.34397897  0.87730324  0.69920229    -0.12700
C618        C  0.31020496  0.85182603  0.69849555     0.01000
C619        C  0.29339965  0.84057388  0.99529764    -0.11200
C620        C  0.31106576  0.85336568  0.95949256     0.03500
C621        C  0.34475912  0.87908735  0.96046695    -0.10600
H622        H  0.35701240  0.88596656  0.72739257     0.09100
H623        H  0.26792135  0.82017027  0.99469648     0.06600
H624        H  0.35844120  0.88913809  0.93291489     0.06400
C625        C  0.07131827  0.86837856  0.66559955     0.03500
C626        C  0.08490555  0.85210690  0.96250527    -0.12700
C627        C  0.11015140  0.81804448  0.96164836     0.01000
C628        C  0.12185915  0.80025467  0.99750731    -0.11200
C629        C  0.11002526  0.81730462  0.70068555     0.03500
C630        C  0.08472848  0.85126317  0.70125796    -0.10600
H631        H  0.07575014  0.86591152  0.93490791     0.09100
H632        H  0.14199313  0.77455334  0.99700938     0.06600
H633        H  0.07555823  0.86446246  0.72941419     0.06400
C634        C  0.38443797  0.60163299  0.66149519     0.03500
C635        C  0.37023581  0.61818360  0.69748893    -0.12700
C636        C  0.34500461  0.65216590  0.69757624     0.01000
C637        C  0.33381940  0.66961399  0.99472201    -0.11200
C638        C  0.34632480  0.65228541  0.95855207     0.03500
C639        C  0.37170455  0.61838420  0.95874362    -0.10600
H640        H  0.37892134  0.60465086  0.72537244     0.09100
H641        H  0.31362103  0.69526272  0.99468449     0.06600
H642        H  0.38140884  0.60491893  0.93088229     0.06400
N643        N  0.47087212  0.92322516  0.66899379    -0.36300
N644        N  0.41546352  0.99193071  0.66337257    -0.56800
N645        N  0.48469620  0.54687276  0.65940459    -0.36300
N646        N  0.04008884  0.97817006  0.66484593    -0.56800
C647        C  0.43550149  0.90309045  0.66508053     0.27300
C648        C  0.00113727  0.89583955  0.66586401     0.27300
C649        C  0.45442396  0.57412798  0.66333335     0.27300
C650        C  0.02000389  0.56692383  0.66407087     0.27300
C651        C  0.38772361  0.96203256  0.66451606     0.35900
C652        C  0.39496519  0.52714547  0.66168492     0.35900
C653        C  0.06062138  0.94294465  0.66633053     0.35900
C654        C  0.06780301  0.50808796  0.66346930     0.35900
C655        C  0.44345757  0.86228096  0.66074054    -0.21600
C656        C  0.48460610  0.85772900  0.66125139    -0.21600
C657        C  0.47085670  0.61204938  0.66956748    -0.21500
C658        C  0.51200007  0.60752399  0.67003135    -0.21500
C659        C  0.34935410  0.97846305  0.66373553    -0.22600
C660        C  0.35392566  0.51953245  0.66187283    -0.22600
C661        C  0.10164903  0.95061516  0.66605050    -0.22600
C662        C  0.10618154  0.49169112  0.66416884    -0.22600
C663        C  0.39607375  0.92002090  0.66485869    -0.18000
C664        C  0.04332834  0.90375696  0.66649230    -0.18000
C665        C  0.05943092  0.55009175  0.66316123    -0.18000
C666        C  0.41231253  0.56627193  0.66156242    -0.18000
H667        H  0.42187051  0.83817357  0.65694706     0.15000
H668        H  0.00052319  0.82945798  0.65792068     0.15000
H669        H  0.45488003  0.64016338  0.67386136     0.15000
H670        H  0.03355349  0.63149134  0.67474696     0.15000
H671        H  0.32092420  0.96253938  0.66421567     0.13200
H672        H  0.32969947  0.54130288  0.66107098     0.13200
H673        H  0.12590006  0.92887597  0.66686000     0.13200
H674        H  0.13459521  0.50764375  0.66368421     0.13200
H675        H  0.47407372  0.95352473  0.67565979     0.26500
H676        H  0.48157013  0.51694940  0.65110026     0.26500
C677        C  0.09450286  0.57838661  0.66342356     0.03500
C678        C  0.11122244  0.59213482  0.96077713    -0.12700
C679        C  0.14530079  0.61726856  0.96070194     0.01100
C680        C  0.16269018  0.62877423  0.99689916    -0.11200
C681        C  0.14520312  0.61677066  0.69973383     0.03500
C682        C  0.11121169  0.59149074  0.69952634    -0.10600
H683        H  0.09777688  0.58314953  0.93287738     0.09100
H684        H  0.18841495  0.64887621  0.99695139     0.06600
H685        H  0.09771755  0.58204193  0.72737891     0.06400
C686        C  0.33000080  0.66726014  0.92078456     0.42800
N687        N  0.28898880  0.67377299  0.87229158     0.01700
C688        C  0.25536909  0.84105395  0.75466301    -0.06200
H689        H  0.23297099  0.86378681  0.91208350     0.07200
C690        C  0.12086590  0.76321244  0.90538420    -0.06500
Co691      Co  0.29995614  0.75189057  0.82907224     0.74200
N692        N  0.25523267  0.81644676  0.87335251    -0.25700
Co693      Co  0.21088726  0.80693998  0.83011564     0.74100
C694        C  0.12667597  0.80286898  0.92354454     0.42900
N695        N  0.16689073  0.67419165  0.87360753     0.01300
N696        N  0.16723412  0.79626128  0.87392625     0.01400
N697        N  0.31347787  0.80556615  0.75646113    -0.46600
H698        H  0.35652137  0.73054862  0.91075762     0.07200
N699        N  0.28931226  0.79593404  0.87255843     0.01700
N700        N  0.16707854  0.79587664  0.78722713     0.01400
C701        C  0.12690988  0.80194053  0.73804043     0.43000
N702        N  0.20106996  0.65383855  0.87379849    -0.25200
C703        C  0.33437744  0.70690113  0.75378999    -0.06100
N704        N  0.30033376  0.64868418  0.90059509    -0.46300
N705        N  0.15614674  0.82076196  0.75859345    -0.46500
C706        C  0.32804242  0.66755401  0.73529335     0.42800
N707        N  0.28882179  0.79524504  0.78583521     0.01700
N708        N  0.20080871  0.65339662  0.78617166    -0.25200
N709        N  0.30941604  0.70792197  0.87262651    -0.25700
N710        N  0.16671324  0.67386926  0.78694819     0.01300
H711        H  0.22350291  0.60664258  0.74695885     0.07200
H712        H  0.10023034  0.73873818  0.74810359     0.07200
N713        N  0.25475580  0.81577660  0.78577697    -0.25700
N714        N  0.14676373  0.76212828  0.87445603    -0.25300
N715        N  0.28847236  0.67356173  0.78562324     0.01700
C716        C  0.29627573  0.83731865  0.92130053     0.43100
C717        C  0.20023242  0.62818241  0.90460862    -0.06600
N718        N  0.14670525  0.76169846  0.78681532    -0.25300
H719        H  0.10003960  0.73959077  0.91362326     0.07200
N720        N  0.31456902  0.80737485  0.90076181    -0.46600
H721        H  0.22390402  0.60743649  0.91253619     0.07200
C722        C  0.16032189  0.63329682  0.73754830     0.42900
C723        C  0.33561904  0.70690942  0.90286615    -0.06100
Co724      Co  0.24501829  0.66280040  0.82949759     0.73800
N725        N  0.14190841  0.66325531  0.90250363    -0.46300
C726        C  0.29454516  0.83447940  0.73573387     0.43200
N727        N  0.29900199  0.64871059  0.75639856    -0.46300
Co728      Co  0.15592548  0.71778213  0.83046683     0.73900
C729        C  0.12098601  0.76244849  0.75615832    -0.06600
C730        C  0.25652493  0.84282820  0.90378026    -0.06200
N731        N  0.30895371  0.70767351  0.78508397    -0.25700
N732        N  0.15618416  0.82139646  0.90275095    -0.46500
H733        H  0.23173885  0.86185045  0.74674805     0.07200
C734        C  0.19985614  0.62745661  0.75536040    -0.06600
Cl735      Cl  0.22794173  0.73485320  0.82986273    -0.49600
C736        C  0.16067866  0.63406705  0.92304528     0.42900
H737        H  0.35511521  0.73056508  0.74545781     0.07200
N738        N  0.14171494  0.66280129  0.75839546    -0.46300
C739        C  0.86098637  0.39174611  0.99699034     0.03500
C740        C  0.84397867  0.37730356  0.03253560    -0.12700
C741        C  0.81020487  0.35182610  0.03182888     0.01000
C742        C  0.79339931  0.34057411  0.32863121    -0.11200
C743        C  0.81106542  0.35336576  0.29282607     0.03500
C744        C  0.84475880  0.37908741  0.29380034    -0.10600
H745        H  0.85701191  0.38596709  0.06072591     0.09100
H746        H  0.76792098  0.32017051  0.32803015     0.06600
H747        H  0.85844076  0.38913810  0.26624821     0.06400
C748        C  0.57131813  0.36837842  0.99893285     0.03500
C749        C  0.58490563  0.35210679  0.29583857    -0.12700
C750        C  0.61015142  0.31804430  0.29498173     0.01000
C751        C  0.62185894  0.30025452  0.33084077    -0.11200
C752        C  0.61002516  0.31730468  0.03401912     0.03500
C753        C  0.58472828  0.35126320  0.03459138    -0.10600
H754        H  0.57575028  0.36591137  0.26824118     0.09100
H755        H  0.64199279  0.27455308  0.33034296     0.06600
H756        H  0.57555796  0.36446257  0.06274754     0.06400
C757        C  0.88443805  0.10163292  0.99482847     0.03500
C758        C  0.87023573  0.11818352  0.03082214    -0.12700
C759        C  0.84500452  0.15216581  0.03090931     0.01000
C760        C  0.83381957  0.16961413  0.32805566    -0.11200
C761        C  0.84632474  0.15228549  0.29188565     0.03500
C762        C  0.87170442  0.11838421  0.29207712    -0.10600
H763        H  0.87892120  0.10465084  0.05870570     0.09100
H764        H  0.81362139  0.19526302  0.32801825     0.06600
H765        H  0.88140866  0.10491899  0.26421575     0.06400
N766        N  0.97087207  0.42322523  0.00232638    -0.36300
N767        N  0.91546352  0.49193069  0.99670567    -0.56800
N768        N  0.98469622  0.04687264  0.99273761    -0.36300
N769        N  0.54008870  0.47816994  0.99817874    -0.56800
C770        C  0.93550132  0.40309042  0.99841363     0.27300
C771        C  0.50113715  0.39583941  0.99919712     0.27300
C772        C  0.95442401  0.07412787  0.99666675     0.27300
C773        C  0.52000393  0.06692376  0.99740421     0.27300
C774        C  0.88772353  0.46203261  0.99784911     0.35900
C775        C  0.89496519  0.02714547  0.99501812     0.35900
C776        C  0.56062122  0.44294452  0.99966351     0.35900
C777        C  0.56780294  0.00808788  0.99680239     0.35900
C778        C  0.94345733  0.36228089  0.99407441    -0.21600
C779        C  0.98460589  0.35772885  0.99458535    -0.21600
C780        C  0.97085678  0.11204918  0.00290130    -0.21500
C781        C  0.01200016  0.10752377  0.00336499    -0.21500
C782        C  0.84935406  0.47846317  0.99706858    -0.22600
C783        C  0.85392565  0.01953254  0.99520594    -0.22600
C784        C  0.60164888  0.45061501  0.99938374    -0.22600
C785        C  0.60618145  0.99169097  0.99750207    -0.22600
C786        C  0.89607363  0.42002098  0.99819191    -0.18000
C787        C  0.54332819  0.40375686  0.99982535    -0.18000
C788        C  0.55943095  0.05009169  0.99649440    -0.18000
C789        C  0.91231258  0.06627186  0.99489577    -0.18000
H790        H  0.92187019  0.33817349  0.99028162     0.15000
H791        H  0.50052296  0.32945771  0.99125552     0.15000
H792        H  0.95488012  0.14016311  0.00719556     0.15000
H793        H  0.53355349  0.13149119  0.00808061     0.15000
H794        H  0.82092411  0.46253959  0.99754883     0.13200
H795        H  0.82969949  0.04130301  0.99440410     0.13200
H796        H  0.62589985  0.42887581  0.00019352     0.13200
H797        H  0.63459515  0.00764352  0.99701765     0.13200
H798        H  0.97407374  0.45352423  0.00899151     0.26500
H799        H  0.98157010  0.01694952  0.98443302     0.26500
C800        C  0.59450291  0.07838653  0.99675674     0.03500
C801        C  0.61122236  0.09213495  0.29411059    -0.12700
C802        C  0.64530065  0.11726875  0.29403541     0.01100
C803        C  0.66268998  0.12877450  0.33023263    -0.11200
C804        C  0.64520305  0.11677084  0.03306695     0.03500
C805        C  0.61121158  0.09149096  0.03285951    -0.10600
H806        H  0.59777684  0.08314961  0.26621083     0.09100
H807        H  0.68841465  0.14887662  0.33028485     0.06600
H808        H  0.59771737  0.08204232  0.06071210     0.06400
C809        C  0.83000069  0.16726029  0.25411816     0.42800
N810        N  0.78898899  0.17377289  0.20562486     0.01700
C811        C  0.75536908  0.34105391  0.08799630    -0.06200
H812        H  0.73297081  0.36378675  0.24541674     0.07200
C813        C  0.62086624  0.26321207  0.23871771    -0.06500
Co814      Co  0.79995629  0.25189059  0.16240555     0.74200
N815        N  0.75523272  0.31644676  0.20668579    -0.25700
Co816      Co  0.71088736  0.30693989  0.16344891     0.74100
C817        C  0.62667617  0.30286869  0.25687796     0.42900
N818        N  0.66689083  0.17419149  0.20694081     0.01300
N819        N  0.66723427  0.29626104  0.20725957     0.01400
N820        N  0.81347804  0.30556650  0.08979464    -0.46600
H821        H  0.85652113  0.23054885  0.24409125     0.07200
N822        N  0.78931231  0.29593404  0.20589183     0.01700
N823        N  0.66707866  0.29587656  0.12056047     0.01400
C824        C  0.62690964  0.30194068  0.07137410     0.43000
N825        N  0.70107010  0.15383841  0.20713192    -0.25200
C826        C  0.83437739  0.20690117  0.08712301    -0.06100
N827        N  0.80033387  0.14868418  0.23392849    -0.46300
N828        N  0.65614665  0.32076201  0.09192699    -0.46500
C829        C  0.82804225  0.16755407  0.06862632     0.42800
N830        N  0.78882192  0.29524520  0.11916861     0.01700
N831        N  0.70080887  0.15339658  0.11950482    -0.25200
N832        N  0.80941617  0.20792193  0.20595983    -0.25700
N833        N  0.66671335  0.17386915  0.12028147     0.01300
H834        H  0.72350304  0.10664270  0.08029179     0.07200
H835        H  0.60023020  0.23873828  0.08143722     0.07200
N836        N  0.75475584  0.31577659  0.11911027    -0.25700
N837        N  0.64676397  0.26212799  0.20778943    -0.25300
N838        N  0.78847248  0.17356170  0.11895644     0.01700
C839        C  0.79627548  0.33731856  0.25463408     0.43100
C840        C  0.70023255  0.12818247  0.23794224    -0.06600
N841        N  0.64670538  0.26169837  0.12014870    -0.25300
H842        H  0.60003990  0.23959044  0.24695677     0.07200
N843        N  0.81456892  0.30737481  0.23409537    -0.46600
H844        H  0.72390411  0.10743663  0.24587003     0.07200
C845        C  0.66032198  0.13329696  0.07088141     0.42900
C846        C  0.83561901  0.20690952  0.23619962    -0.06100
Co847      Co  0.74501845  0.16280028  0.16283085     0.73800
N848        N  0.64190847  0.16325531  0.23583693    -0.46300
C849        C  0.79454521  0.33447959  0.06906730     0.43200
N850        N  0.79900193  0.14871062  0.08973163    -0.46300
Co851      Co  0.65592565  0.21778196  0.16380014     0.73900
C852        C  0.62098594  0.26244856  0.08949188    -0.06600
C853        C  0.75652481  0.34282814  0.23711359    -0.06200
N854        N  0.80895382  0.20767350  0.11841714    -0.25700
N855        N  0.65618430  0.32139620  0.23608429    -0.46500
H856        H  0.73173874  0.36185032  0.08008130     0.07200
C857        C  0.69985632  0.12745676  0.08869338    -0.06600
Cl858      Cl  0.72794190  0.23485311  0.16319589    -0.49600
C859        C  0.66067867  0.13406713  0.25637875     0.42900
H860        H  0.85511515  0.23056513  0.07879078     0.07200
N861        N  0.64171498  0.16280124  0.09172878    -0.46300
C862        C  0.86098630  0.39174610  0.33032368     0.03500
C863        C  0.84397866  0.37730364  0.36586900    -0.12700
C864        C  0.81020476  0.35182631  0.36516241     0.01000
C865        C  0.79339939  0.34057425  0.66196432    -0.11200
C866        C  0.81106563  0.35336595  0.62615925     0.03500
C867        C  0.84475910  0.37908749  0.62713369    -0.10600
H868        H  0.85701203  0.38596720  0.39405924     0.09100
H869        H  0.76792094  0.32017081  0.66136314     0.06600
H870        H  0.85844113  0.38913826  0.59958162     0.06400
C871        C  0.57131818  0.36837849  0.33226611     0.03500
C872        C  0.58490545  0.35210696  0.62917188    -0.12700
C873        C  0.61015126  0.31804455  0.62831487     0.01000
C874        C  0.62185906  0.30025467  0.66417376    -0.11200
C875        C  0.61002502  0.31730470  0.36735247     0.03500
C876        C  0.58472826  0.35126328  0.36792466    -0.10600
H877        H  0.57574994  0.36591161  0.60157458     0.09100
H878        H  0.64199302  0.27455332  0.66367573     0.06600
H879        H  0.57555791  0.36446271  0.39608080     0.06400
C880        C  0.88443799  0.10163285  0.32816192     0.03500
C881        C  0.87023559  0.11818331  0.36415562    -0.12700
C882        C  0.84500464  0.15216579  0.36424291     0.01000
C883        C  0.83381941  0.16961411  0.66138906    -0.11200
C884        C  0.84632462  0.15228557  0.62521901     0.03500
C885        C  0.87170431  0.11838432  0.62541039    -0.10600
H886        H  0.87892087  0.10465041  0.39203913     0.09100
H887        H  0.81362114  0.19526292  0.66135169     0.06600
H888        H  0.88140852  0.10491916  0.59754899     0.06400
N889        N  0.97087197  0.42322517  0.33566017    -0.36300
N890        N  0.91546350  0.49193067  0.33003905    -0.56800
N891        N  0.98469620  0.04687255  0.32607145    -0.36300
N892        N  0.54008867  0.47817000  0.33151210    -0.56800
C893        C  0.93550121  0.40309031  0.33174723     0.27300
C894        C  0.50113709  0.39583933  0.33253072     0.27300
C895        C  0.95442399  0.07412787  0.33000045     0.27300
C896        C  0.52000393  0.06692375  0.33073813     0.27300
C897        C  0.88772350  0.46203258  0.33118245     0.35900
C898        C  0.89496528  0.02714538  0.32835151     0.35900
C899        C  0.56062119  0.44294456  0.33299660     0.35900
C900        C  0.56780293  0.00808788  0.33013580     0.35900
C901        C  0.94345726  0.36228084  0.32740776    -0.21600
C902        C  0.98460583  0.35772882  0.32791862    -0.21600
C903        C  0.97085676  0.11204912  0.33623503    -0.21500
C904        C  0.01200014  0.10752368  0.33669888    -0.21500
C905        C  0.84935404  0.47846314  0.33040183    -0.22600
C906        C  0.85392577  0.01953245  0.32853898    -0.22600
C907        C  0.60164884  0.45061503  0.33271654    -0.22600
C908        C  0.60618143  0.99169096  0.33083513    -0.22600
C909        C  0.89607357  0.42002095  0.33152525    -0.18000
C910        C  0.54332816  0.40375689  0.33315865    -0.18000
C911        C  0.55943093  0.05009166  0.32982805    -0.18000
C912        C  0.91231260  0.06627180  0.32822925    -0.18000
H913        H  0.92187013  0.33817347  0.32361466     0.15000
H914        H  0.50052289  0.32945774  0.32458854     0.15000
H915        H  0.95488009  0.14016306  0.34052922     0.15000
H916        H  0.53355348  0.13149113  0.34141453     0.15000
H917        H  0.82092408  0.46253958  0.33088204     0.13200
H918        H  0.82969961  0.04130291  0.32773694     0.13200
H919        H  0.62589982  0.42887581  0.33352610     0.13200
H920        H  0.63459514  0.00764349  0.33035057     0.13200
H921        H  0.97407358  0.45352376  0.34232536     0.26500
H922        H  0.98157013  0.01694990  0.31776699     0.26500
C923        C  0.59450288  0.07838654  0.33009033     0.03500
C924        C  0.61122227  0.09213524  0.62744393    -0.12700
C925        C  0.64530079  0.11726871  0.62736882     0.01100
C926        C  0.66269037  0.12877399  0.66356606    -0.11200
C927        C  0.64520290  0.11677110  0.36640047     0.03500
C928        C  0.61121166  0.09149092  0.36619307    -0.10600
H929        H  0.59777655  0.08315025  0.59954416     0.09100
H930        H  0.68841529  0.14887580  0.66361835     0.06600
H931        H  0.59771764  0.08204210  0.39404568     0.06400
C932        C  0.83000057  0.16726039  0.58745158     0.42800
N933        N  0.78898891  0.17377304  0.53895832     0.01700
C934        C  0.75536905  0.34105410  0.42132988    -0.06200
H935        H  0.73297089  0.36378681  0.57875007     0.07200
C936        C  0.62086575  0.26321248  0.57205082    -0.06500
Co937      Co  0.79995621  0.25189064  0.49573898     0.74200
N938        N  0.75523268  0.31644673  0.54001924    -0.25700
Co939      Co  0.71088729  0.30694002  0.49678236     0.74100
C940        C  0.62667576  0.30286910  0.59021101     0.42900
N941        N  0.66689073  0.17419168  0.54027430     0.01300
N942        N  0.66723413  0.29626125  0.54059292     0.01400
N943        N  0.81347788  0.30556645  0.42312796    -0.46600
H944        H  0.85652111  0.23054888  0.57742468     0.07200
N945        N  0.78931232  0.29593412  0.53922517     0.01700
N946        N  0.66707862  0.29587672  0.45389381     0.01400
C947        C  0.62690957  0.30194079  0.40470745     0.43000
N948        N  0.70107005  0.15383866  0.54046540    -0.25200
C949        C  0.83437757  0.20690107  0.42045668    -0.06100
N950        N  0.80033379  0.14868428  0.56726190    -0.46300
N951        N  0.65614671  0.32076209  0.42526020    -0.46500
C952        C  0.82804243  0.16755397  0.40196001     0.42800
N953        N  0.78882179  0.29524516  0.45250196     0.01700
N954        N  0.70080871  0.15339673  0.45283839    -0.25200
N955        N  0.80941607  0.20792206  0.53929330    -0.25700
N956        N  0.66671326  0.17386940  0.45361498     0.01300
H957        H  0.72350275  0.10664284  0.41362528     0.07200
H958        H  0.60022987  0.23873855  0.41477083     0.07200
N959        N  0.75475579  0.31577668  0.45244377    -0.25700
N960        N  0.64676370  0.26212827  0.54112272    -0.25300
N961        N  0.78847245  0.17356172  0.45228997     0.01700
C962        C  0.79627570  0.33731886  0.58796720     0.43100
C963        C  0.70023258  0.12818267  0.57127567    -0.06600
N964        N  0.64670526  0.26169857  0.45348210    -0.25300
H965        H  0.60003938  0.23959090  0.58028992     0.07200
N966        N  0.81456909  0.30737509  0.56742850    -0.46600
H967        H  0.72390419  0.10743683  0.57920336     0.07200
C968        C  0.66032183  0.13329729  0.40421488     0.42900
C969        C  0.83561890  0.20690959  0.56953307    -0.06100
Co970      Co  0.74501835  0.16280042  0.49616436     0.73800
N971        N  0.64190840  0.16325538  0.56917041    -0.46300
C972        C  0.79454515  0.33447977  0.40240083     0.43200
N973        N  0.79900201  0.14871057  0.42306526    -0.46300
Co974      Co  0.65592551  0.21778217  0.49713358     0.73900
C975        C  0.62098573  0.26244875  0.42282536    -0.06600
C976        C  0.75652488  0.34282822  0.57044694    -0.06200
N977        N  0.80895384  0.20767349  0.45175069    -0.25700
N978        N  0.65618411  0.32139648  0.56941755    -0.46500
H979        H  0.73173873  0.36185055  0.41341494     0.07200
C980        C  0.69985610  0.12745699  0.42202690    -0.06600
Cl981      Cl  0.72794178  0.23485325  0.49652943    -0.49600
C982        C  0.66067874  0.13406726  0.58971221     0.42900
H983        H  0.85511547  0.23056492  0.41212452     0.07200
N984        N  0.64171494  0.16280168  0.42506218    -0.46300
C985        C  0.86098656  0.39174600  0.66365712     0.03500
C986        C  0.84397891  0.37730328  0.69920236    -0.12700
C987        C  0.81020486  0.35182612  0.69849559     0.01000
C988        C  0.79339955  0.34057391  0.99529762    -0.11200
C989        C  0.81106567  0.35336574  0.95949254     0.03500
C990        C  0.84475903  0.37908742  0.96046695    -0.10600
H991        H  0.85701231  0.38596657  0.72739266     0.09100
H992        H  0.76792125  0.32017029  0.99469645     0.06600
H993        H  0.85844107  0.38913819  0.93291489     0.06400
C994        C  0.57131826  0.36837857  0.66559952     0.03500
C995        C  0.58490542  0.35210673  0.96250528    -0.12700
C996        C  0.61015142  0.31804443  0.96164838     0.01000
C997        C  0.62185926  0.30025472  0.99750735    -0.11200
C998        C  0.61002516  0.31730459  0.70068559     0.03500
C999        C  0.58472840  0.35126317  0.70125797    -0.10600
H1000       H  0.57574987  0.36591128  0.93490792     0.09100
H1001       H  0.64199333  0.27455347  0.99700946     0.06600
H1002       H  0.57555812  0.36446249  0.72941418     0.06400
C1003       C  0.88443791  0.10163292  0.66149515     0.03500
C1004       C  0.87023572  0.11818341  0.69748892    -0.12700
C1005       C  0.84500469  0.15216584  0.69757628     0.01000
C1006       C  0.83381930  0.16961391  0.99472199    -0.11200
C1007       C  0.84632466  0.15228529  0.95855205     0.03500
C1008       C  0.87170448  0.11838414  0.95874363    -0.10600
H1009       H  0.87892119  0.10465054  0.72537239     0.09100
H1010       H  0.81362099  0.19526268  0.99468448     0.06600
H1011       H  0.88140880  0.10491888  0.93088230     0.06400
N1012       N  0.97087218  0.42322520  0.66899358    -0.36300
N1013       N  0.91546352  0.49193073  0.66337258    -0.56800
N1014       N  0.98469615  0.04687278  0.65940430    -0.36300
N1015       N  0.54008883  0.47817009  0.66484572    -0.56800
C1016       C  0.93550149  0.40309044  0.66508051     0.27300
C1017       C  0.50113728  0.39583959  0.66586380     0.27300
C1018       C  0.95442392  0.07412799  0.66333315     0.27300
C1019       C  0.52000388  0.06692386  0.66407088     0.27300
C1020       C  0.88772361  0.46203257  0.66451611     0.35900
C1021       C  0.89496518  0.02714546  0.66168497     0.35900
C1022       C  0.56062135  0.44294467  0.66633045     0.35900
C1023       C  0.56780299  0.00808798  0.66346937     0.35900
C1024       C  0.94345756  0.36228099  0.66074047    -0.21600
C1025       C  0.98460610  0.35772901  0.66125112    -0.21600
C1026       C  0.97085668  0.11204936  0.66956734    -0.21500
C1027       C  0.01200004  0.10752397  0.67003109    -0.21500
C1028       C  0.84935410  0.47846304  0.66373556    -0.22600
C1029       C  0.85392566  0.01953241  0.66187309    -0.22600
C1030       C  0.60164901  0.45061516  0.66605052    -0.22600
C1031       C  0.60618152  0.99169112  0.66416905    -0.22600
C1032       C  0.89607377  0.42002092  0.66485883    -0.18000
C1033       C  0.54332833  0.40375699  0.66649222    -0.18000
C1034       C  0.55943092  0.05009179  0.66316129    -0.18000
C1035       C  0.91231249  0.06627193  0.66156234    -0.18000
H1036       H  0.92187045  0.33817363  0.65694708     0.15000
H1037       H  0.50052333  0.32945801  0.65792084     0.15000
H1038       H  0.95488003  0.14016337  0.67386134     0.15000
H1039       H  0.53355339  0.13149141  0.67474688     0.15000
H1040       H  0.82092418  0.46253938  0.66421580     0.13200
H1041       H  0.82969941  0.04130280  0.66107135     0.13200
H1042       H  0.62590001  0.42887597  0.66686009     0.13200
H1043       H  0.63459521  0.00764371  0.66368457     0.13200
H1044       H  0.97407377  0.45352434  0.67565951     0.26500
H1045       H  0.98157009  0.01694940  0.65110002     0.26500
C1046       C  0.59450285  0.07838665  0.66342363     0.03500
C1047       C  0.61122244  0.09213491  0.96077703    -0.12700
C1048       C  0.64530093  0.11726845  0.96070191     0.01100
C1049       C  0.66269038  0.12877399  0.99689914    -0.11200
C1050       C  0.64520308  0.11677071  0.69973384     0.03500
C1051       C  0.61121160  0.09149092  0.69952639    -0.10600
H1052       H  0.59777683  0.08314975  0.93287725     0.09100
H1053       H  0.68841525  0.14887585  0.99695137     0.06600
H1054       H  0.59771742  0.08204224  0.72737898     0.06400
C1055       C  0.83000075  0.16726002  0.92078450     0.42800
N1056       N  0.78898877  0.17377292  0.87229151     0.01700
C1057       C  0.75536899  0.34105394  0.75466301    -0.06200
H1058       H  0.73297089  0.36378678  0.91208342     0.07200
C1059       C  0.62086588  0.26321234  0.90538427    -0.06500
Co1060     Co  0.79995610  0.25189058  0.82907226     0.74200
N1061       N  0.75523259  0.31644667  0.87335256    -0.25700
Co1062     Co  0.71088721  0.30693994  0.83011566     0.74100
C1063       C  0.62667597  0.30286892  0.92354453     0.42900
N1064       N  0.66689075  0.17419149  0.87360747     0.01300
N1065       N  0.66723411  0.29626115  0.87392625     0.01400
N1066       N  0.81347777  0.30556618  0.75646115    -0.46600
H1067       H  0.85652130  0.23054852  0.91075770     0.07200
N1068       N  0.78931221  0.29593402  0.87255846     0.01700
N1069       N  0.66707851  0.29587662  0.78722714     0.01400
C1070       C  0.62690977  0.30194053  0.73804051     0.43000
N1071       N  0.70107004  0.15383847  0.87379845    -0.25200
C1072       C  0.83437747  0.20690116  0.75378996    -0.06100
N1073       N  0.80033383  0.14868400  0.90059489    -0.46300
N1074       N  0.65614666  0.32076196  0.75859349    -0.46500
C1075       C  0.82804256  0.16755397  0.73529341     0.42800
N1076       N  0.78882170  0.29524505  0.78583523     0.01700
N1077       N  0.70080870  0.15339667  0.78617159    -0.25200
N1078       N  0.80941596  0.20792194  0.87262655    -0.25700
N1079       N  0.66671320  0.17386923  0.78694816     0.01300
H1080       H  0.72350285  0.10664253  0.74695888     0.07200
H1081       H  0.60023018  0.23873822  0.74810384     0.07200
N1082       N  0.75475572  0.31577662  0.78577700    -0.25700
N1083       N  0.64676372  0.26212814  0.87445607    -0.25300
N1084       N  0.78847239  0.17356175  0.78562321     0.01700
C1085       C  0.79627570  0.33731877  0.92130047     0.43100
C1086       C  0.70023262  0.12818238  0.90460863    -0.06600
N1087       N  0.64670525  0.26169843  0.78681535    -0.25300
H1088       H  0.60003953  0.23959074  0.91362336     0.07200
N1089       N  0.81456901  0.30737496  0.90076176    -0.46600
H1090       H  0.72390423  0.10743645  0.91253613     0.07200
C1091       C  0.66032188  0.13329685  0.73754828     0.42900
C1092       C  0.83561898  0.20690935  0.90286617    -0.06100
Co1093     Co  0.74501829  0.16280040  0.82949752     0.73800
N1094       N  0.64190849  0.16325513  0.90250361    -0.46300
C1095       C  0.79454506  0.33447943  0.73573389     0.43200
N1096       N  0.79900210  0.14871057  0.75639859    -0.46300
Co1097     Co  0.65592547  0.21778203  0.83046683     0.73900
C1098       C  0.62098591  0.26244850  0.75615844    -0.06600
C1099       C  0.75652485  0.34282816  0.90378025    -0.06200
N1100       N  0.80895373  0.20767354  0.78508395    -0.25700
N1101       N  0.65618420  0.32139634  0.90275095    -0.46500
H1102       H  0.73173871  0.36185039  0.74674799     0.07200
C1103       C  0.69985614  0.12745667  0.75536033    -0.06600
Cl1104     Cl  0.72794173  0.23485318  0.82986272    -0.49600
C1105       C  0.66067885  0.13406698  0.92304530     0.42900
H1106       H  0.85511519  0.23056515  0.74545775     0.07200
N1107       N  0.64171487  0.16280125  0.75839545    -0.46300
C1108       C  0.86098632  0.89174609  0.99699034     0.03500
C1109       C  0.84397863  0.87730355  0.03253559    -0.12700
C1110       C  0.81020483  0.85182609  0.03182889     0.01000
C1111       C  0.79339924  0.84057416  0.32863119    -0.11200
C1112       C  0.81106540  0.85336579  0.29282605     0.03500
C1113       C  0.84475878  0.87908741  0.29380035    -0.10600
H1114       H  0.85701187  0.88596708  0.06072591     0.09100
H1115       H  0.76792093  0.82017054  0.32803012     0.06600
H1116       H  0.85844076  0.88913809  0.26624822     0.06400
C1117       C  0.57131823  0.86837848  0.99893281     0.03500
C1118       C  0.58490566  0.85210684  0.29583860    -0.12700
C1119       C  0.61015142  0.81804435  0.29498173     0.01000
C1120       C  0.62185908  0.80025463  0.33084074    -0.11200
C1121       C  0.61002513  0.81730458  0.03401903     0.03500
C1122       C  0.58472831  0.85126313  0.03459129    -0.10600
H1123       H  0.57575031  0.86591147  0.26824123     0.09100
H1124       H  0.64199301  0.77455325  0.33034290     0.06600
H1125       H  0.57555794  0.86446247  0.06274746     0.06400
C1126       C  0.88443803  0.60163289  0.99482846     0.03500
C1127       C  0.87023575  0.61818349  0.03082214    -0.12700
C1128       C  0.84500460  0.65216584  0.03090933     0.01000
C1129       C  0.83381954  0.66961413  0.32805566    -0.11200
C1130       C  0.84632469  0.65228547  0.29188565     0.03500
C1131       C  0.87170438  0.61838421  0.29207712    -0.10600
H1132       H  0.87892119  0.60465077  0.05870569     0.09100
H1133       H  0.81362130  0.69526297  0.32801825     0.06600
H1134       H  0.88140854  0.60491896  0.26421574     0.06400
N1135       N  0.97087199  0.92322518  0.00232656    -0.36300
N1136       N  0.91546347  0.99193069  0.99670568    -0.56800
N1137       N  0.98469623  0.54687260  0.99273783    -0.36300
N1138       N  0.54008867  0.97817000  0.99817875    -0.56800
C1139       C  0.93550127  0.90309037  0.99841389     0.27300
C1140       C  0.50113716  0.89583939  0.99919738     0.27300
C1141       C  0.95442401  0.57412785  0.99666681     0.27300
C1142       C  0.52000396  0.56692372  0.99740445     0.27300
C1143       C  0.88772349  0.96203259  0.99784910     0.35900
C1144       C  0.89496523  0.52714546  0.99501812     0.35900
C1145       C  0.56062119  0.94294457  0.99966346     0.35900
C1146       C  0.56780296  0.50808783  0.99680244     0.35900
C1147       C  0.94345733  0.86228082  0.99407475    -0.21600
C1148       C  0.98460588  0.85772882  0.99458561    -0.21600
C1149       C  0.97085678  0.61204915  0.00290130    -0.21500
C1150       C  0.01200016  0.60752376  0.00336505    -0.21500
C1151       C  0.84935401  0.97846317  0.99706855    -0.22600
C1152       C  0.85392570  0.51953253  0.99520594    -0.22600
C1153       C  0.60164883  0.95061504  0.99938356    -0.22600
C1154       C  0.60618147  0.49169096  0.99750215    -0.22600
C1155       C  0.89607358  0.92002094  0.99819194    -0.18000
C1156       C  0.54332820  0.90375689  0.99982540    -0.18000
C1157       C  0.55943096  0.55009161  0.99649460    -0.18000
C1158       C  0.91231259  0.56627185  0.99489576    -0.18000
H1159       H  0.92187021  0.83817337  0.99028196     0.15000
H1160       H  0.50052310  0.82945771  0.99125579     0.15000
H1161       H  0.95488011  0.64016311  0.00719548     0.15000
H1162       H  0.53355357  0.63149118  0.00808058     0.15000
H1163       H  0.82092407  0.96253958  0.99754873     0.13200
H1164       H  0.82969955  0.54130301  0.99440413     0.13200
H1165       H  0.62589980  0.92887581  0.00019324     0.13200
H1166       H  0.63459514  0.50764355  0.99701777     0.13200
H1167       H  0.97407368  0.95352439  0.00899155     0.26500
H1168       H  0.98157017  0.51694955  0.98443331     0.26500
C1169       C  0.59450295  0.57838641  0.99675691     0.03500
C1170       C  0.61122232  0.59213491  0.29411057    -0.12700
C1171       C  0.64530062  0.61726874  0.29403532     0.01100
C1172       C  0.66269001  0.62877451  0.33023251    -0.11200
C1173       C  0.64520310  0.61677077  0.03306703     0.03500
C1174       C  0.61121176  0.59149072  0.03285965    -0.10600
H1175       H  0.59777675  0.58314957  0.26621084     0.09100
H1176       H  0.68841469  0.64887659  0.33028468     0.06600
H1177       H  0.59771771  0.58204195  0.06071225     0.06400
C1178       C  0.83000067  0.66726027  0.25411815     0.42800
N1179       N  0.78898897  0.67377294  0.20562488     0.01700
C1180       C  0.75536908  0.84105389  0.08799632    -0.06200
H1181       H  0.73297078  0.86378672  0.24541674     0.07200
C1182       C  0.62086627  0.76321213  0.23871773    -0.06500
Co1183     Co  0.79995628  0.75189059  0.16240555     0.74200
N1184       N  0.75523270  0.81644673  0.20668582    -0.25700
Co1185     Co  0.71088735  0.80693994  0.16344890     0.74100
C1186       C  0.62667614  0.80286877  0.25687796     0.42900
N1187       N  0.66689083  0.67419153  0.20694076     0.01300
N1188       N  0.66723420  0.79626119  0.20725954     0.01400
N1189       N  0.81347804  0.80556646  0.08979461    -0.46600
H1190       H  0.85652128  0.73054875  0.24409115     0.07200
N1191       N  0.78931232  0.79593404  0.20589185     0.01700
N1192       N  0.66707866  0.79587661  0.12056041     0.01400
C1193       C  0.62690965  0.80194061  0.07137400     0.43000
N1194       N  0.70107012  0.65383851  0.20713188    -0.25200
C1195       C  0.83437738  0.70690120  0.08712300    -0.06100
N1196       N  0.80033382  0.64868420  0.23392850    -0.46300
N1197       N  0.65614667  0.82076200  0.09192686    -0.46500
C1198       C  0.82804231  0.66755408  0.06862634     0.42800
N1199       N  0.78882193  0.79524519  0.11916862     0.01700
N1200       N  0.70080887  0.65339662  0.11950484    -0.25200
N1201       N  0.80941620  0.70792193  0.20595983    -0.25700
N1202       N  0.66671336  0.67386921  0.12028146     0.01300
H1203       H  0.72350299  0.60664262  0.08029187     0.07200
H1204       H  0.60023026  0.73873819  0.08143722     0.07200
N1205       N  0.75475586  0.81577658  0.11911030    -0.25700
N1206       N  0.64676396  0.76212810  0.20778943    -0.25300
N1207       N  0.78847249  0.67356170  0.11895643     0.01700
C1208       C  0.79627550  0.83731864  0.25463403     0.43100
C1209       C  0.70023256  0.62818255  0.23794219    -0.06600
N1210       N  0.64670538  0.76169843  0.12014867    -0.25300
H1211       H  0.60004009  0.73959037  0.24695685     0.07200
N1212       N  0.81456895  0.80737489  0.23409534    -0.46600
H1213       H  0.72390417  0.60743673  0.24586996     0.07200
C1214       C  0.66032201  0.63329695  0.07088145     0.42900
C1215       C  0.83561910  0.70690946  0.23619956    -0.06100
Co1216     Co  0.74501845  0.66280035  0.16283085     0.73800
N1217       N  0.64190842  0.66325522  0.23583678    -0.46300
C1218       C  0.79454519  0.83447956  0.06906729     0.43200
N1219       N  0.79900202  0.64871058  0.08973167    -0.46300
Co1220     Co  0.65592564  0.71778204  0.16380013     0.73900
C1221       C  0.62098598  0.76244849  0.08949182    -0.06600
C1222       C  0.75652479  0.84282814  0.23711359    -0.06200
N1223       N  0.80895379  0.70767352  0.11841712    -0.25700
N1224       N  0.65618421  0.82139633  0.23608427    -0.46500
H1225       H  0.73173872  0.86185028  0.08008131     0.07200
C1226       C  0.69985631  0.62745675  0.08869344    -0.06600
Cl1227     Cl  0.72794187  0.73485316  0.16319590    -0.49600
C1228       C  0.66067862  0.63406706  0.25637860     0.42900
H1229       H  0.85511513  0.73056517  0.07879079     0.07200
N1230       N  0.64171501  0.66280128  0.09172875    -0.46300
C1231       C  0.86098627  0.89174608  0.33032371     0.03500
C1232       C  0.84397853  0.87730373  0.36586903    -0.12700
C1233       C  0.81020461  0.85182643  0.36516240     0.01000
C1234       C  0.79339940  0.84057422  0.66196425    -0.11200
C1235       C  0.81106569  0.85336590  0.62615920     0.03500
C1236       C  0.84475912  0.87908748  0.62713364    -0.10600
H1237       H  0.85701187  0.88596729  0.39405927     0.09100
H1238       H  0.76792093  0.82017082  0.66136303     0.06600
H1239       H  0.85844115  0.88913829  0.59958159     0.06400
C1240       C  0.57131819  0.86837849  0.33226613     0.03500
C1241       C  0.58490551  0.85210704  0.62917191    -0.12700
C1242       C  0.61015123  0.81804455  0.62831484     0.01000
C1243       C  0.62185908  0.80025466  0.66417371    -0.11200
C1244       C  0.61002513  0.81730474  0.36735246     0.03500
C1245       C  0.58472827  0.85126323  0.36792465    -0.10600
H1246       H  0.57574999  0.86591173  0.60157462     0.09100
H1247       H  0.64199302  0.77455331  0.66367567     0.06600
H1248       H  0.57555786  0.86446258  0.39608081     0.06400
C1249       C  0.88443804  0.60163293  0.32816193     0.03500
C1250       C  0.87023581  0.61818351  0.36415565    -0.12700
C1251       C  0.84500474  0.65216592  0.36424293     0.01000
C1252       C  0.83381943  0.66961420  0.66138904    -0.11200
C1253       C  0.84632456  0.65228558  0.62521900     0.03500
C1254       C  0.87170424  0.61838432  0.62541040    -0.10600
H1255       H  0.87892123  0.60465070  0.39203915     0.09100
H1256       H  0.81362114  0.69526301  0.66135164     0.06600
H1257       H  0.88140839  0.60491911  0.59754902     0.06400
N1258       N  0.97087201  0.92322510  0.33566020    -0.36300
N1259       N  0.91546355  0.99193060  0.33003928    -0.56800
N1260       N  0.98469620  0.54687259  0.32607147    -0.36300
N1261       N  0.54008865  0.97817001  0.33151230    -0.56800
C1262       C  0.93550125  0.90309024  0.33174743     0.27300
C1263       C  0.50113713  0.89583935  0.33253080     0.27300
C1264       C  0.95442399  0.57412790  0.33000051     0.27300
C1265       C  0.52000391  0.56692375  0.33073817     0.27300
C1266       C  0.88772355  0.96203253  0.33118245     0.35900
C1267       C  0.89496523  0.52714545  0.32835143     0.35900
C1268       C  0.56062116  0.94294457  0.33299667     0.35900
C1269       C  0.56780294  0.50808787  0.33013577     0.35900
C1270       C  0.94345731  0.86228077  0.32740810    -0.21600
C1271       C  0.98460588  0.85772873  0.32791887    -0.21600
C1272       C  0.97085679  0.61204911  0.33623517    -0.21500
C1273       C  0.01200017  0.60752371  0.33669894    -0.21500
C1274       C  0.84935411  0.97846311  0.33040160    -0.22600
C1275       C  0.85392570  0.51953249  0.32853907    -0.22600
C1276       C  0.60164881  0.95061502  0.33271651    -0.22600
C1277       C  0.60618144  0.49169096  0.33083515    -0.22600
C1278       C  0.89607359  0.92002088  0.33152531    -0.18000
C1279       C  0.54332817  0.90375691  0.33315868    -0.18000
C1280       C  0.55943093  0.55009166  0.32982816    -0.18000
C1281       C  0.91231259  0.56627187  0.32822924    -0.18000
H1282       H  0.92187017  0.83817338  0.32361505     0.15000
H1283       H  0.50052307  0.82945782  0.32458843     0.15000
H1284       H  0.95488014  0.64016308  0.34052944     0.15000
H1285       H  0.53355348  0.63149116  0.34141447     0.15000
H1286       H  0.82092411  0.96253958  0.33088160     0.13200
H1287       H  0.82969953  0.54130296  0.32773712     0.13200
H1288       H  0.62589978  0.92887578  0.33352595     0.13200
H1289       H  0.63459515  0.50764352  0.33035069     0.13200
H1290       H  0.97407364  0.95352376  0.34232526     0.26500
H1291       H  0.98157014  0.51694993  0.31776701     0.26500
C1292       C  0.59450290  0.57838652  0.33009035     0.03500
C1293       C  0.61122237  0.59213525  0.62744392    -0.12700
C1294       C  0.64530083  0.61726882  0.62736883     0.01100
C1295       C  0.66269038  0.62877407  0.66356610    -0.11200
C1296       C  0.64520296  0.61677112  0.36640037     0.03500
C1297       C  0.61121172  0.59149093  0.36619304    -0.10600
H1298       H  0.59777680  0.58315012  0.59954412     0.09100
H1299       H  0.68841532  0.64887584  0.66361842     0.06600
H1300       H  0.59771773  0.58204212  0.39404568     0.06400
C1301       C  0.83000053  0.66726041  0.58745156     0.42800
N1302       N  0.78898888  0.67377313  0.53895828     0.01700
C1303       C  0.75536894  0.84105413  0.42132987    -0.06200
H1304       H  0.73297097  0.86378688  0.57875008     0.07200
C1305       C  0.62086579  0.76321249  0.57205080    -0.06500
Co1306     Co  0.79995630  0.75189072  0.49573897     0.74200
N1307       N  0.75523271  0.81644677  0.54001923    -0.25700
Co1308     Co  0.71088732  0.80694004  0.49678236     0.74100
C1309       C  0.62667571  0.80286912  0.59021098     0.42900
N1310       N  0.66689086  0.67419180  0.54027432     0.01300
N1311       N  0.66723416  0.79626127  0.54059294     0.01400
N1312       N  0.81347790  0.80556664  0.42312798    -0.46600
H1313       H  0.85652112  0.73054889  0.57742475     0.07200
N1314       N  0.78931235  0.79593416  0.53922513     0.01700
N1315       N  0.66707868  0.79587673  0.45389380     0.01400
C1316       C  0.62690962  0.80194080  0.40470745     0.43000
N1317       N  0.70107013  0.65383875  0.54046534    -0.25200
C1318       C  0.83437755  0.70690119  0.42045666    -0.06100
N1319       N  0.80033371  0.64868434  0.56726185    -0.46300
N1320       N  0.65614676  0.82076210  0.42526022    -0.46500
C1321       C  0.82804246  0.66755408  0.40195999     0.42800
N1322       N  0.78882184  0.79524527  0.45250198     0.01700
N1323       N  0.70080869  0.65339676  0.45283833    -0.25200
N1324       N  0.80941610  0.70792213  0.53929330    -0.25700
N1325       N  0.66671322  0.67386940  0.45361495     0.01300
H1326       H  0.72350282  0.60664289  0.41362524     0.07200
H1327       H  0.60023003  0.73873848  0.41477076     0.07200
N1328       N  0.75475578  0.81577671  0.45244377    -0.25700
N1329       N  0.64676376  0.76212829  0.54112274    -0.25300
N1330       N  0.78847243  0.67356183  0.45228991     0.01700
C1331       C  0.79627577  0.83731890  0.58796713     0.43100
C1332       C  0.70023265  0.62818274  0.57127561    -0.06600
N1333       N  0.64670532  0.76169859  0.45348210    -0.25300
H1334       H  0.60003935  0.73959091  0.58028978     0.07200
N1335       N  0.81456913  0.80737510  0.56742845    -0.46600
H1336       H  0.72390428  0.60743693  0.57920334     0.07200
C1337       C  0.66032190  0.63329736  0.40421476     0.42900
C1338       C  0.83561892  0.70690964  0.56953310    -0.06100
Co1339     Co  0.74501836  0.66280053  0.49616429     0.73800
N1340       N  0.64190854  0.66325547  0.56917042    -0.46300
C1341       C  0.79454504  0.83447986  0.40240081     0.43200
N1342       N  0.79900198  0.64871070  0.42306518    -0.46300
Co1343     Co  0.65592557  0.71778223  0.49713359     0.73900
C1344       C  0.62098584  0.76244872  0.42282531    -0.06600
C1345       C  0.75652494  0.84282827  0.57044692    -0.06200
N1346       N  0.80895387  0.70767357  0.45175069    -0.25700
N1347       N  0.65618407  0.82139650  0.56941754    -0.46500
H1348       H  0.73173863  0.86185061  0.41341500     0.07200
C1349       C  0.69985614  0.62745699  0.42202686    -0.06600
Cl1350     Cl  0.72794187  0.73485332  0.49652940    -0.49600
C1351       C  0.66067881  0.63406731  0.58971217     0.42900
H1352       H  0.85511540  0.73056508  0.41212451     0.07200
N1353       N  0.64171493  0.66280166  0.42506212    -0.46300
C1354       C  0.86098655  0.89174600  0.66365705     0.03500
C1355       C  0.84397890  0.87730328  0.69920229    -0.12700
C1356       C  0.81020487  0.85182609  0.69849554     0.01000
C1357       C  0.79339950  0.84057389  0.99529764    -0.11200
C1358       C  0.81106563  0.85336568  0.95949256     0.03500
C1359       C  0.84475899  0.87908737  0.96046695    -0.10600
H1360       H  0.85701230  0.88596658  0.72739260     0.09100
H1361       H  0.76792121  0.82017027  0.99469648     0.06600
H1362       H  0.85844107  0.88913810  0.93291489     0.06400
C1363       C  0.57131830  0.86837860  0.66559955     0.03500
C1364       C  0.58490562  0.85210689  0.96250524    -0.12700
C1365       C  0.61015138  0.81804444  0.96164833     0.01000
C1366       C  0.62185913  0.80025461  0.99750725    -0.11200
C1367       C  0.61002529  0.81730462  0.70068555     0.03500
C1368       C  0.58472847  0.85126315  0.70125796    -0.10600
H1369       H  0.57575022  0.86591153  0.93490789     0.09100
H1370       H  0.64199313  0.77455329  0.99700928     0.06600
H1371       H  0.57555817  0.86446241  0.72941420     0.06400
C1372       C  0.88443794  0.60163300  0.66149516     0.03500
C1373       C  0.87023589  0.61818365  0.69748892    -0.12700
C1374       C  0.84500475  0.65216597  0.69757626     0.01000
C1375       C  0.83381932  0.66961389  0.99472201    -0.11200
C1376       C  0.84632467  0.65228528  0.95855207     0.03500
C1377       C  0.87170445  0.61838411  0.95874363    -0.10600
H1378       H  0.87892147  0.60465091  0.72537241     0.09100
H1379       H  0.81362096  0.69526263  0.99468451     0.06600
H1380       H  0.88140877  0.60491886  0.93088229     0.06400
N1381       N  0.97087214  0.92322515  0.66899379    -0.36300
N1382       N  0.91546355  0.99193073  0.66337253    -0.56800
N1383       N  0.98469612  0.54687274  0.65940427    -0.36300
N1384       N  0.54008877  0.97817006  0.66484572    -0.56800
C1385       C  0.93550150  0.90309047  0.66508053     0.27300
C1386       C  0.50113726  0.89583957  0.66586407     0.27300
C1387       C  0.95442393  0.57412798  0.66333321     0.27300
C1388       C  0.52000393  0.56692391  0.66407107     0.27300
C1389       C  0.88772363  0.96203257  0.66451613     0.35900
C1390       C  0.89496518  0.52714547  0.66168491     0.35900
C1391       C  0.56062131  0.94294467  0.66633045     0.35900
C1392       C  0.56780305  0.50808801  0.66346937     0.35900
C1393       C  0.94345755  0.86228100  0.66074046    -0.21600
C1394       C  0.98460607  0.85772900  0.66125122    -0.21600
C1395       C  0.97085675  0.61204933  0.66956760    -0.21500
C1396       C  0.01200013  0.60752389  0.67003139    -0.21500
C1397       C  0.84935412  0.97846303  0.66373582    -0.22600
C1398       C  0.85392566  0.51953241  0.66187283    -0.22600
C1399       C  0.60164896  0.95061518  0.66605052    -0.22600
C1400       C  0.60618156  0.49169112  0.66416904    -0.22600
C1401       C  0.89607377  0.92002091  0.66485873    -0.18000
C1402       C  0.54332832  0.90375698  0.66649230    -0.18000
C1403       C  0.55943097  0.55009184  0.66316131    -0.18000
C1404       C  0.91231249  0.56627196  0.66156236    -0.18000
H1405       H  0.92187043  0.83817365  0.65694699     0.15000
H1406       H  0.50052329  0.82945801  0.65792097     0.15000
H1407       H  0.95488014  0.64016333  0.67386174     0.15000
H1408       H  0.53355336  0.63149156  0.67474675     0.15000
H1409       H  0.82092422  0.96253937  0.66421615     0.13200
H1410       H  0.82969942  0.54130282  0.66107098     0.13200
H1411       H  0.62589996  0.92887596  0.66686010     0.13200
H1412       H  0.63459525  0.50764371  0.66368457     0.13200
H1413       H  0.97407377  0.95352472  0.67565982     0.26500
H1414       H  0.98157000  0.51694939  0.65109990     0.26500
C1415       C  0.59450288  0.57838672  0.66342362     0.03500
C1416       C  0.61122239  0.59213488  0.96077717    -0.12700
C1417       C  0.64530084  0.61726847  0.96070200     0.01100
C1418       C  0.66269034  0.62877401  0.99689920    -0.11200
C1419       C  0.64520308  0.61677077  0.69973389     0.03500
C1420       C  0.61121159  0.59149098  0.69952640    -0.10600
H1421       H  0.59777671  0.58314976  0.93287741     0.09100
H1422       H  0.68841519  0.64887590  0.99695141     0.06600
H1423       H  0.59771740  0.58204225  0.72737896     0.06400
C1424       C  0.83000077  0.66726002  0.92078454     0.42800
N1425       N  0.78898883  0.67377293  0.87229154     0.01700
C1426       C  0.75536901  0.84105395  0.75466299    -0.06200
H1427       H  0.73297088  0.86378678  0.91208349     0.07200
C1428       C  0.62086587  0.76321240  0.90538422    -0.06500
Co1429     Co  0.79995619  0.75189059  0.82907224     0.74200
N1430       N  0.75523260  0.81644673  0.87335252    -0.25700
Co1431     Co  0.71088722  0.80693998  0.83011564     0.74100
C1432       C  0.62667594  0.80286896  0.92354451     0.42900
N1433       N  0.66689075  0.67419161  0.87360763     0.01300
N1434       N  0.66723406  0.79626129  0.87392622     0.01400
N1435       N  0.81347779  0.80556621  0.75646114    -0.46600
H1436       H  0.85652148  0.73054846  0.91075760     0.07200
N1437       N  0.78931221  0.79593404  0.87255843     0.01700
N1438       N  0.66707856  0.79587664  0.78722713     0.01400
C1439       C  0.62690994  0.80194052  0.73804041     0.43000
N1440       N  0.70107002  0.65383855  0.87379860    -0.25200
C1441       C  0.83437757  0.70690112  0.75379002    -0.06100
N1442       N  0.80033376  0.64868407  0.90059502    -0.46300
N1443       N  0.65614675  0.82076199  0.75859349    -0.46500
C1444       C  0.82804257  0.66755402  0.73529339     0.42800
N1445       N  0.78882174  0.79524510  0.78583524     0.01700
N1446       N  0.70080871  0.65339668  0.78617170    -0.25200
N1447       N  0.80941614  0.70792188  0.87262647    -0.25700
N1448       N  0.66671320  0.67386924  0.78694830     0.01300
H1449       H  0.72350293  0.60664273  0.74695879     0.07200
H1450       H  0.60023037  0.73873818  0.74810364     0.07200
N1451       N  0.75475574  0.81577664  0.78577699    -0.25700
N1452       N  0.64676366  0.76212829  0.87445601    -0.25300
N1453       N  0.78847242  0.67356176  0.78562321     0.01700
C1454       C  0.79627563  0.83731865  0.92130053     0.43100
C1455       C  0.70023252  0.62818246  0.90460878    -0.06600
N1456       N  0.64670532  0.76169842  0.78681529    -0.25300
H1457       H  0.60003957  0.73959074  0.91362330     0.07200
N1458       N  0.81456897  0.80737489  0.90076179    -0.46600
H1459       H  0.72390413  0.60743658  0.91253643     0.07200
C1460       C  0.66032188  0.63329690  0.73754835     0.42900
C1461       C  0.83561920  0.70690925  0.90286604    -0.06100
Co1462     Co  0.74501832  0.66280040  0.82949760     0.73800
N1463       N  0.64190842  0.66325520  0.90250370    -0.46300
C1464       C  0.79454507  0.83447944  0.73573386     0.43200
N1465       N  0.79900209  0.64871060  0.75639855    -0.46300
Co1466     Co  0.65592548  0.71778211  0.83046688     0.73900
C1467       C  0.62098611  0.76244845  0.75615828    -0.06600
C1468       C  0.75652483  0.84282817  0.90378027    -0.06200
N1469       N  0.80895379  0.70767353  0.78508396    -0.25700
N1470       N  0.65618416  0.82139643  0.90275096    -0.46500
H1471       H  0.73173879  0.86185049  0.74674802     0.07200
C1472       C  0.69985618  0.62745677  0.75536035    -0.06600
Cl1473     Cl  0.72794177  0.73485320  0.82986274    -0.49600
C1474       C  0.66067872  0.63406700  0.92304538     0.42900
H1475       H  0.85511536  0.73056507  0.74545786     0.07200
N1476       N  0.64171488  0.66280129  0.75839557    -0.46300
loop_ 
_geom_bond_atom_site_label_1 
_geom_bond_atom_site_label_2 
_geom_bond_distance 
_geom_bond_site_symmetry_2 
_ccdc_geom_bond_type 
C1            C2   1.405   1_556  A
C1          C252   1.409       .  A
C1           C48   1.497       .  S
C2            C3   1.405       .  A
C2            H7   1.084       .  S
C3          C250   1.404   1_554  A
C3          C111   1.473       .  S
C4            C5   1.404       .  A
C4          C126   1.404       .  A
C4            H8   1.084       .  S
C5            C6   1.408       .  A
C5          C101   1.477       .  S
C6          C124   1.409       .  A
C6            H9   1.084       .  S
C10          C15   1.406   1_556  A
C10         C257   1.409       .  A
C10          C49   1.498       .  S
C11          C12   1.408       .  A
C11         C133   1.409       .  A
C11          H16   1.084       .  S
C12          C13   1.404       .  A
C12          C79   1.478       .  S
C13         C137   1.404       .  A
C13          H17   1.084       .  S
C14          C15   1.406       .  A
C14         C259   1.404   1_554  A
C14          C86   1.474       .  S
C15          H18   1.084       .  S
C19          C20   1.406   1_556  A
C19         C270   1.407       .  A
C19          C51   1.495       .  S
C20          C21   1.406       .  A
C20          H25   1.084       .  S
C21         C268   1.404   1_554  A
C21          C91   1.474       .  S
C22          C23   1.404       .  A
C22         C144   1.404       .  A
C22          H26   1.084       .  S
C23          C24   1.407       .  A
C23          C71   1.475       .  S
C24         C142   1.407       .  A
C24          H27   1.084       .  S
N28          H60   1.035       .  S
N28          C32   1.359   1_554  A
N28         C771   1.359   1_554  A
N29          C36   1.355       .  A
N29         C406   1.355       .  A
N30          H61   1.036       .  S
N30          C34   1.358       .  A
N30         C773   1.358       .  A
N31          C38   1.355       .  A
N31         C408   1.355       .  A
C32          C40   1.387       .  A
C32          C48   1.426       .  A
C33          C49   1.426       .  A
C33         C779   1.388   1_455  A
C33         N766   1.359   1_456  A
C34          C42   1.388   1_556  A
C34          C51   1.425       .  A
C35          C50   1.424       .  A
C35         C781   1.387   1_556  A
C35         N768   1.358   1_455  A
C36          C48   1.422       .  A
C36          C44   1.387       .  A
C37          C51   1.421       .  A
C37          C45   1.387       .  A
C37         N398   1.355   1_545  A
C38          C46   1.387       .  A
C38          C49   1.422       .  A
C39          C47   1.387   1_545  A
C39          C50   1.422       .  A
C39         N400   1.355   1_545  A
C40          C41   1.376       .  A
C40          H52   1.082       .  S
C41         C771   1.388       .  A
C41         H791   1.082       .  S
C42          C43   1.375       .  A
C42          H54   1.082       .  S
C43         C773   1.387   1_554  A
C43         H793   1.082       .  S
C44         C414   1.374       .  A
C44          H56   1.082       .  S
C45         C413   1.374   1_545  A
C45          H57   1.082       .  S
C46         C416   1.374       .  A
C46          H58   1.082   1_556  S
C47         C415   1.374       .  A
C47          H59   1.082   1_565  S
C50          C62   1.497       .  S
H53         C779   1.082   1_455  S
H55         C781   1.082       .  S
C62          C67   1.407   1_556  A
C62         C309   1.406       .  A
C63          C64   1.406       .  A
C63         C185   1.406       .  A
C63          H68   1.084       .  S
C64          C65   1.404       .  A
C64         C121   1.475       .  S
C65         C189   1.404       .  A
C65          H69   1.084       .  S
C66          C67   1.407       .  A
C66         C311   1.404   1_554  A
C66         C107   1.476       .  S
C67          H70   1.084       .  S
C71         C108   1.462       .  S
C71          N89   1.349       .  A
N72          N89   1.326       .  A
N72          N94   1.321       .  A
N72        Co109   2.091       .  S
C73         C111   1.461       .  S
C73         H118   1.081       .  S
C73          N98   1.345       .  A
H74         C115   1.081       .  S
C75          C79   1.462       .  S
C75         H104   1.081       .  S
C75          N99   1.346       .  A
Co76         N94   2.099       .  S
Co76         N84   2.092       .  S
Co76        N116   2.100       .  S
Co76         N92   2.087       .  S
Co76       Cl120   2.458       .  S
N77         C115   1.345       .  A
N77          N84   1.321       .  A
N77         Co78   2.102       .  S
Co78         N81   2.091       .  S
Co78         N98   2.099       .  S
Co78         N85   2.090       .  S
Co78       Cl120   2.459       .  S
C79         N117   1.350       .  A
N80          N87   1.322       .  A
N80         N110   1.326       .  A
N80        Co113   2.089       .  S
N81          N99   1.322       .  A
N81         N117   1.326       .  A
N82         C111   1.348       .  A
N82          N92   1.325       .  A
H83         C108   1.081       .  S
N84         N105   1.326       .  A
N85         N103   1.321       .  A
N85          N90   1.325       .  A
C86         C114   1.461       .  S
C86          N90   1.349       .  A
N87         C102   1.345       .  A
N87        Co109   2.101       .  S
C88          C91   1.460       .  S
C88         H122   1.081       .  S
C88         N116   1.345       .  A
C91         N112   1.349       .  A
N92          N98   1.321       .  A
N93         C119   1.346       .  A
N93          N95   1.321       .  A
N93        Co109   2.100       .  S
N94         C108   1.345       .  A
N95         N123   1.326       .  A
N95        Co113   2.091       .  S
H96         C119   1.081       .  S
H97         C114   1.081       .  S
N99        Co113   2.104       .  S
N100        N112   1.326       .  A
N100        N116   1.321       .  A
N100       Co109   2.089       .  S
C101        C115   1.463       .  S
C101        N105   1.350       .  A
C102        C121   1.462       .  S
C102        H106   1.081       .  S
N103        C114   1.345       .  A
N103       Co113   2.099       .  S
C107        C119   1.462       .  S
C107        N123   1.349       .  A
Co109      Cl120   2.458       .  S
N110        C121   1.349       .  A
Co113      Cl120   2.459       .  S
C124        C125   1.405       .  A
C124        C171   1.497       .  S
C125        C126   1.405       .  A
C125        H130   1.084       .  S
C126        C234   1.473       .  S
C127        C249   1.404       .  A
C127        C128   1.404       .  A
C127        H131   1.084       .  S
C128        C129   1.408       .  A
C128        C224   1.477       .  S
C129        C247   1.409       .  A
C129        H132   1.084       .  S
C133        C138   1.406       .  A
C133        C172   1.498       .  S
C134        C256   1.409       .  A
C134        C135   1.408       .  A
C134        H139   1.084       .  S
C135        C136   1.404       .  A
C135        C202   1.478       .  S
C136        C260   1.404       .  A
C136        H140   1.084       .  S
C137        C138   1.406       .  A
C137        C209   1.474       .  S
C138        H141   1.084       .  S
C142        C143   1.406       .  A
C142        C174   1.495       .  S
C143        C144   1.406       .  A
C143        H148   1.084       .  S
C144        C214   1.474       .  S
C145        C267   1.404       .  A
C145        C146   1.404       .  A
C145        H149   1.084       .  S
C146        C147   1.407       .  A
C146        C194   1.475       .  S
C147        C265   1.407       .  A
C147        H150   1.084       .  S
N151        H183   1.035       .  S
N151        C894   1.359       .  A
N151        C155   1.359       .  A
N152        C159   1.355       .  A
N152        C529   1.355       .  A
N153        H184   1.036       .  S
N153        C896   1.358       .  A
N153        C157   1.358       .  A
N154        C161   1.355       .  A
N154        C531   1.355       .  A
C155        C163   1.387       .  A
C155        C171   1.426       .  A
C156        C172   1.426       .  A
C156        C902   1.388   1_455  A
C156        N889   1.359   1_455  A
C157        C165   1.388       .  A
C157        C174   1.425       .  A
C158        C173   1.424       .  A
C158        C904   1.387       .  A
C158        N891   1.358   1_455  A
C159        C171   1.422       .  A
C159        C167   1.387       .  A
C160        C174   1.421       .  A
C160        C168   1.387       .  A
C160        N521   1.355   1_545  A
C161        C169   1.387       .  A
C161        C172   1.422       .  A
C162        C170   1.387   1_545  A
C162        C173   1.422       .  A
C162        N523   1.355   1_545  A
C163        C164   1.376       .  A
C163        H175   1.082       .  S
C164        C894   1.388       .  A
C164        H914   1.082       .  S
C165        C166   1.375       .  A
C165        H177   1.082       .  S
C166        C896   1.387       .  A
C166        H916   1.082       .  S
C167        C537   1.374       .  A
C167        H179   1.082       .  S
C168        C536   1.374   1_545  A
C168        H180   1.082       .  S
C169        C539   1.374       .  A
C169        H181   1.082       .  S
C170        C538   1.374       .  A
C170        H182   1.082   1_565  S
C173        C185   1.497       .  S
H176        C902   1.082   1_455  S
H178        C904   1.082       .  S
C185        C190   1.407       .  A
C186        C308   1.406       .  A
C186        C187   1.406       .  A
C186        H191   1.084       .  S
C187        C188   1.404       .  A
C187        C244   1.475       .  S
C188        C312   1.404       .  A
C188        H192   1.084       .  S
C189        C190   1.407       .  A
C189        C230   1.476       .  S
C190        H193   1.084       .  S
C194        C231   1.462       .  S
C194        N212   1.349       .  A
N195        N212   1.326       .  A
N195        N217   1.321       .  A
N195       Co232   2.091       .  S
C196        C234   1.461       .  S
C196        H241   1.081       .  S
C196        N221   1.345       .  A
H197        C238   1.081       .  S
C198        C202   1.462       .  S
C198        H227   1.081       .  S
C198        N222   1.346       .  A
Co199       N217   2.099       .  S
Co199       N207   2.092       .  S
Co199       N239   2.100       .  S
Co199       N215   2.087       .  S
Co199      Cl243   2.458       .  S
N200        C238   1.345       .  A
N200        N207   1.321       .  A
N200       Co201   2.102       .  S
Co201       N204   2.091       .  S
Co201       N221   2.099       .  S
Co201       N208   2.090       .  S
Co201      Cl243   2.459       .  S
C202        N240   1.350       .  A
N203        N210   1.322       .  A
N203        N233   1.326       .  A
N203       Co236   2.089       .  S
N204        N222   1.322       .  A
N204        N240   1.326       .  A
N205        C234   1.348       .  A
N205        N215   1.325       .  A
H206        C231   1.081       .  S
N207        N228   1.326       .  A
N208        N226   1.321       .  A
N208        N213   1.325       .  A
C209        C237   1.461       .  S
C209        N213   1.349       .  A
N210        C225   1.345       .  A
N210       Co232   2.101       .  S
C211        C214   1.460       .  S
C211        H245   1.081       .  S
C211        N239   1.345       .  A
C214        N235   1.349       .  A
N215        N221   1.321       .  A
N216        C242   1.346       .  A
N216        N218   1.321       .  A
N216       Co232   2.100       .  S
N217        C231   1.345       .  A
N218        N246   1.326       .  A
N218       Co236   2.091       .  S
H219        C242   1.081       .  S
H220        C237   1.081       .  S
N222       Co236   2.104       .  S
N223        N235   1.326       .  A
N223        N239   1.321       .  A
N223       Co232   2.089       .  S
C224        C238   1.463       .  S
C224        N228   1.350       .  A
C225        C244   1.462       .  S
C225        H229   1.081       .  S
N226        C237   1.345       .  A
N226       Co236   2.099       .  S
C230        C242   1.462       .  S
C230        N246   1.349       .  A
Co232      Cl243   2.458       .  S
N233        C244   1.349       .  A
Co236      Cl243   2.459       .  S
C247        C248   1.405       .  A
C247        C294   1.497       .  S
C248        C249   1.405       .  A
C248        H253   1.084       .  S
C249        C357   1.473       .  S
C250        C251   1.404       .  A
C250        H254   1.084       .  S
C251        C252   1.408       .  A
C251        C347   1.477       .  S
C252        H255   1.084       .  S
C256        C261   1.406       .  A
C256        C295   1.498       .  S
C257        C258   1.408       .  A
C257        H262   1.084       .  S
C258        C259   1.404       .  A
C258        C325   1.478       .  S
C259        H263   1.084       .  S
C260        C261   1.406       .  A
C260        C332   1.474       .  S
C261        H264   1.084       .  S
C265        C266   1.406       .  A
C265        C297   1.495       .  S
C266        C267   1.406       .  A
C266        H271   1.084       .  S
C267        C337   1.474       .  S
C268        C269   1.404       .  A
C268        H272   1.084       .  S
C269        C270   1.407       .  A
C269        C317   1.475       .  S
C270        H273   1.084       .  S
N274        H306   1.035       .  S
N274       C1017   1.359       .  A
N274        C278   1.359       .  A
N275        C282   1.355       .  A
N275        C652   1.355       .  A
N276        H307   1.036       .  S
N276       C1019   1.358       .  A
N276        C280   1.358       .  A
N277        C284   1.355       .  A
N277        C654   1.355       .  A
C278        C286   1.387       .  A
C278        C294   1.426       .  A
C279        C295   1.426       .  A
C279       C1025   1.388   1_455  A
C279       N1012   1.359   1_455  A
C280        C288   1.388       .  A
C280        C297   1.425       .  A
C281        C296   1.424       .  A
C281       C1027   1.387       .  A
C281       N1014   1.358   1_455  A
C282        C294   1.422       .  A
C282        C290   1.387       .  A
C283        C297   1.421       .  A
C283        C291   1.387       .  A
C283        N644   1.355   1_545  A
C284        C292   1.387       .  A
C284        C295   1.422       .  A
C285        C293   1.387   1_545  A
C285        C296   1.422       .  A
C285        N646   1.355   1_545  A
C286        C287   1.376       .  A
C286        H298   1.082       .  S
C287       C1017   1.388       .  A
C287       H1037   1.082       .  S
C288        C289   1.375       .  A
C288        H300   1.082       .  S
C289       C1019   1.387       .  A
C289       H1039   1.082       .  S
C290        C660   1.374       .  A
C290        H302   1.082       .  S
C291        C659   1.374   1_545  A
C291        H303   1.082       .  S
C292        C662   1.374       .  A
C292        H304   1.082       .  S
C293        C661   1.374       .  A
C293        H305   1.082   1_565  S
C296        C308   1.497       .  S
H299       C1025   1.082   1_455  S
H301       C1027   1.082       .  S
C308        C313   1.407       .  A
C309        C310   1.406       .  A
C309        H314   1.084       .  S
C310        C311   1.404       .  A
C310        C367   1.475       .  S
C311        H315   1.084       .  S
C312        C313   1.407       .  A
C312        C353   1.476       .  S
C313        H316   1.084       .  S
C317        C354   1.462       .  S
C317        N335   1.349       .  A
N318        N335   1.326       .  A
N318        N340   1.321       .  A
N318       Co355   2.091       .  S
C319        C357   1.461       .  S
C319        H364   1.081       .  S
C319        N344   1.345       .  A
H320        C361   1.081       .  S
C321        C325   1.462       .  S
C321        H350   1.081       .  S
C321        N345   1.346       .  A
Co322       N340   2.099       .  S
Co322       N330   2.092       .  S
Co322       N362   2.100       .  S
Co322       N338   2.087       .  S
Co322      Cl366   2.458       .  S
N323        C361   1.345       .  A
N323        N330   1.321       .  A
N323       Co324   2.102       .  S
Co324       N327   2.091       .  S
Co324       N344   2.099       .  S
Co324       N331   2.090       .  S
Co324      Cl366   2.459       .  S
C325        N363   1.350       .  A
N326        N333   1.322       .  A
N326        N356   1.326       .  A
N326       Co359   2.089       .  S
N327        N345   1.322       .  A
N327        N363   1.326       .  A
N328        C357   1.348       .  A
N328        N338   1.325       .  A
H329        C354   1.081       .  S
N330        N351   1.326       .  A
N331        N349   1.321       .  A
N331        N336   1.325       .  A
C332        C360   1.461       .  S
C332        N336   1.349       .  A
N333        C348   1.345       .  A
N333       Co355   2.101       .  S
C334        C337   1.460       .  S
C334        H368   1.081       .  S
C334        N362   1.345       .  A
C337        N358   1.349       .  A
N338        N344   1.321       .  A
N339        C365   1.346       .  A
N339        N341   1.321       .  A
N339       Co355   2.100       .  S
N340        C354   1.345       .  A
N341        N369   1.326       .  A
N341       Co359   2.091       .  S
H342        C365   1.081       .  S
H343        C360   1.081       .  S
N345       Co359   2.104       .  S
N346        N358   1.326       .  A
N346        N362   1.321       .  A
N346       Co355   2.089       .  S
C347        C361   1.463       .  S
C347        N351   1.350       .  A
C348        C367   1.462       .  S
C348        H352   1.081       .  S
N349        C360   1.345       .  A
N349       Co359   2.099       .  S
C353        C365   1.462       .  S
C353        N369   1.349       .  A
Co355      Cl366   2.458       .  S
N356        C367   1.349       .  A
Co359      Cl366   2.459       .  S
C370        C371   1.405   1_556  A
C370        C621   1.409       .  A
C370        C417   1.497       .  S
C371        C372   1.405       .  A
C371        H376   1.084       .  S
C372        C619   1.404   1_554  A
C372        C480   1.473       .  S
C373        C495   1.404       .  A
C373        C374   1.404       .  A
C373        H377   1.084       .  S
C374        C375   1.408       .  A
C374        C470   1.477       .  S
C375        C493   1.409       .  A
C375        H378   1.084       .  S
C379        C626   1.409       .  A
C379        C384   1.406   1_556  A
C379        C418   1.498       .  S
C380        C502   1.409       .  A
C380        C381   1.408       .  A
C380        H385   1.084       .  S
C381        C382   1.404       .  A
C381        C448   1.478       .  S
C382        C506   1.404       .  A
C382        H386   1.084       .  S
C383        C628   1.404   1_554  A
C383        C384   1.406       .  A
C383        C455   1.474       .  S
C384        H387   1.084       .  S
C388        C389   1.406   1_556  A
C388        C639   1.407       .  A
C388        C420   1.495       .  S
C389        C390   1.406       .  A
C389        H394   1.084       .  S
C390        C637   1.404   1_554  A
C390        C460   1.474       .  S
C391        C513   1.404       .  A
C391        C392   1.404       .  A
C391        H395   1.084       .  S
C392        C393   1.407       .  A
C392        C440   1.475       .  S
C393        C511   1.407       .  A
C393        H396   1.084       .  S
N397        H429   1.035       .  S
N397       C1140   1.359   1_554  A
N397        C401   1.359   1_554  A
N398        C405   1.355       .  A
N399        H430   1.036       .  S
N399       C1142   1.358       .  A
N399        C403   1.358       .  A
N400        C407   1.355       .  A
C401        C409   1.387       .  A
C401        C417   1.426       .  A
C402        C418   1.426       .  A
C402       C1148   1.388   1_455  A
C402       N1135   1.359   1_456  A
C403        C411   1.388   1_556  A
C403        C420   1.425       .  A
C404        C419   1.424       .  A
C404       C1150   1.387   1_556  A
C404       N1137   1.358   1_455  A
C405        C417   1.422       .  A
C405        C413   1.387       .  A
C406        C420   1.421       .  A
C406        C414   1.387       .  A
C407        C415   1.387       .  A
C407        C418   1.422       .  A
C408        C416   1.387       .  A
C408        C419   1.422       .  A
C409        C410   1.376       .  A
C409        H421   1.082       .  S
C410       C1140   1.388       .  A
C410       H1160   1.082       .  S
C411        C412   1.375       .  A
C411        H423   1.082       .  S
C412       C1142   1.387   1_554  A
C412       H1162   1.082       .  S
C413        H425   1.082       .  S
C414        H426   1.082       .  S
C415        H427   1.082   1_556  S
C416        H428   1.082       .  S
C419        C431   1.497       .  S
H422       C1148   1.082   1_455  S
H424       C1150   1.082       .  S
C431        C678   1.406       .  A
C431        C436   1.407   1_556  A
C432        C554   1.406       .  A
C432        C433   1.406       .  A
C432        H437   1.084       .  S
C433        C434   1.404       .  A
C433        C490   1.475       .  S
C434        C558   1.404       .  A
C434        H438   1.084       .  S
C435        C680   1.404   1_554  A
C435        C436   1.407       .  A
C435        C476   1.476       .  S
C436        H439   1.084       .  S
C440        C477   1.462       .  S
C440        N458   1.349       .  A
N441        N458   1.326       .  A
N441        N463   1.321       .  A
N441       Co478   2.091       .  S
C442        C480   1.461       .  S
C442        H487   1.081       .  S
C442        N467   1.345       .  A
H443        C484   1.081       .  S
C444        C448   1.462       .  S
C444        H473   1.081       .  S
C444        N468   1.346       .  A
Co445       N463   2.099       .  S
Co445       N453   2.092       .  S
Co445       N485   2.100       .  S
Co445       N461   2.087       .  S
Co445      Cl489   2.458       .  S
N446        C484   1.345       .  A
N446        N453   1.321       .  A
N446       Co447   2.102       .  S
Co447       N450   2.091       .  S
Co447       N467   2.099       .  S
Co447       N454   2.090       .  S
Co447      Cl489   2.459       .  S
C448        N486   1.350       .  A
N449        N456   1.322       .  A
N449        N479   1.326       .  A
N449       Co482   2.089       .  S
N450        N468   1.322       .  A
N450        N486   1.326       .  A
N451        C480   1.348       .  A
N451        N461   1.325       .  A
H452        C477   1.081       .  S
N453        N474   1.326       .  A
N454        N472   1.321       .  A
N454        N459   1.325       .  A
C455        C483   1.461       .  S
C455        N459   1.349       .  A
N456        C471   1.345       .  A
N456       Co478   2.101       .  S
C457        C460   1.460       .  S
C457        H491   1.081       .  S
C457        N485   1.345       .  A
C460        N481   1.349       .  A
N461        N467   1.321       .  A
N462        C488   1.346       .  A
N462        N464   1.321       .  A
N462       Co478   2.100       .  S
N463        C477   1.345       .  A
N464        N492   1.326       .  A
N464       Co482   2.091       .  S
H465        C488   1.081       .  S
H466        C483   1.081       .  S
N468       Co482   2.104       .  S
N469        N481   1.326       .  A
N469        N485   1.321       .  A
N469       Co478   2.089       .  S
C470        C484   1.463       .  S
C470        N474   1.350       .  A
C471        C490   1.462       .  S
C471        H475   1.081       .  S
N472        C483   1.345       .  A
N472       Co482   2.099       .  S
C476        C488   1.462       .  S
C476        N492   1.349       .  A
Co478      Cl489   2.458       .  S
N479        C490   1.349       .  A
Co482      Cl489   2.459       .  S
C493        C494   1.405       .  A
C493        C540   1.497       .  S
C494        C495   1.405       .  A
C494        H499   1.084       .  S
C495        C603   1.473       .  S
C496        C618   1.404       .  A
C496        C497   1.404       .  A
C496        H500   1.084       .  S
C497        C498   1.408       .  A
C497        C593   1.477       .  S
C498        C616   1.409       .  A
C498        H501   1.084       .  S
C502        C507   1.406       .  A
C502        C541   1.498       .  S
C503        C625   1.409       .  A
C503        C504   1.408       .  A
C503        H508   1.084       .  S
C504        C505   1.404       .  A
C504        C571   1.478       .  S
C505        C629   1.404       .  A
C505        H509   1.084       .  S
C506        C507   1.406       .  A
C506        C578   1.474       .  S
C507        H510   1.084       .  S
C511        C512   1.406       .  A
C511        C543   1.495       .  S
C512        C513   1.406       .  A
C512        H517   1.084       .  S
C513        C583   1.474       .  S
C514        C636   1.404       .  A
C514        C515   1.404       .  A
C514        H518   1.084       .  S
C515        C516   1.407       .  A
C515        C563   1.475       .  S
C516        C634   1.407       .  A
C516        H519   1.084       .  S
N520        H552   1.035       .  S
N520       C1263   1.359       .  A
N520        C524   1.359       .  A
N521        C528   1.355       .  A
N522        H553   1.036       .  S
N522       C1265   1.358       .  A
N522        C526   1.358       .  A
N523        C530   1.355       .  A
C524        C532   1.387       .  A
C524        C540   1.426       .  A
C525        C541   1.426       .  A
C525       C1271   1.388   1_455  A
C525       N1258   1.359   1_455  A
C526        C534   1.388       .  A
C526        C543   1.425       .  A
C527        C542   1.424       .  A
C527       C1273   1.387       .  A
C527       N1260   1.358   1_455  A
C528        C540   1.422       .  A
C528        C536   1.387       .  A
C529        C543   1.421       .  A
C529        C537   1.387       .  A
C530        C538   1.387       .  A
C530        C541   1.422       .  A
C531        C539   1.387       .  A
C531        C542   1.422       .  A
C532        C533   1.376       .  A
C532        H544   1.082       .  S
C533       C1263   1.388       .  A
C533       H1283   1.082       .  S
C534        C535   1.375       .  A
C534        H546   1.082       .  S
C535       C1265   1.387       .  A
C535       H1285   1.082       .  S
C536        H548   1.082       .  S
C537        H549   1.082       .  S
C538        H550   1.082       .  S
C539        H551   1.082       .  S
C542        C554   1.497       .  S
H545       C1271   1.082   1_455  S
H547       C1273   1.082       .  S
C554        C559   1.407       .  A
C555        C677   1.406       .  A
C555        C556   1.406       .  A
C555        H560   1.084       .  S
C556        C557   1.404       .  A
C556        C613   1.475       .  S
C557        C681   1.404       .  A
C557        H561   1.084       .  S
C558        C559   1.407       .  A
C558        C599   1.476       .  S
C559        H562   1.084       .  S
C563        C600   1.462       .  S
C563        N581   1.349       .  A
N564        N581   1.326       .  A
N564        N586   1.321       .  A
N564       Co601   2.091       .  S
C565        C603   1.461       .  S
C565        H610   1.081       .  S
C565        N590   1.345       .  A
H566        C607   1.081       .  S
C567        C571   1.462       .  S
C567        H596   1.081       .  S
C567        N591   1.346       .  A
Co568       N586   2.099       .  S
Co568       N576   2.092       .  S
Co568       N608   2.100       .  S
Co568       N584   2.087       .  S
Co568      Cl612   2.458       .  S
N569        C607   1.345       .  A
N569        N576   1.321       .  A
N569       Co570   2.102       .  S
Co570       N573   2.091       .  S
Co570       N590   2.099       .  S
Co570       N577   2.090       .  S
Co570      Cl612   2.459       .  S
C571        N609   1.350       .  A
N572        N579   1.322       .  A
N572        N602   1.326       .  A
N572       Co605   2.089       .  S
N573        N591   1.322       .  A
N573        N609   1.326       .  A
N574        C603   1.348       .  A
N574        N584   1.325       .  A
H575        C600   1.081       .  S
N576        N597   1.326       .  A
N577        N595   1.321       .  A
N577        N582   1.325       .  A
C578        C606   1.461       .  S
C578        N582   1.349       .  A
N579        C594   1.345       .  A
N579       Co601   2.101       .  S
C580        C583   1.460       .  S
C580        H614   1.081       .  S
C580        N608   1.345       .  A
C583        N604   1.349       .  A
N584        N590   1.321       .  A
N585        C611   1.346       .  A
N585        N587   1.321       .  A
N585       Co601   2.100       .  S
N586        C600   1.345       .  A
N587        N615   1.326       .  A
N587       Co605   2.091       .  S
H588        C611   1.081       .  S
H589        C606   1.081       .  S
N591       Co605   2.104       .  S
N592        N604   1.326       .  A
N592        N608   1.321       .  A
N592       Co601   2.089       .  S
C593        C607   1.463       .  S
C593        N597   1.350       .  A
C594        C613   1.462       .  S
C594        H598   1.081       .  S
N595        C606   1.345       .  A
N595       Co605   2.099       .  S
C599        C611   1.462       .  S
C599        N615   1.349       .  A
Co601      Cl612   2.458       .  S
N602        C613   1.349       .  A
Co605      Cl612   2.459       .  S
C616        C617   1.405       .  A
C616        C663   1.497       .  S
C617        C618   1.405       .  A
C617        H622   1.084       .  S
C618        C726   1.473       .  S
C619        C620   1.404       .  A
C619        H623   1.084       .  S
C620        C621   1.408       .  A
C620        C716   1.477       .  S
C621        H624   1.084       .  S
C625        C630   1.406       .  A
C625        C664   1.498       .  S
C626        C627   1.408       .  A
C626        H631   1.084       .  S
C627        C628   1.404       .  A
C627        C694   1.478       .  S
C628        H632   1.084       .  S
C629        C630   1.406       .  A
C629        C701   1.474       .  S
C630        H633   1.084       .  S
C634        C635   1.406       .  A
C634        C666   1.495       .  S
C635        C636   1.406       .  A
C635        H640   1.084       .  S
C636        C706   1.474       .  S
C637        C638   1.404       .  A
C637        H641   1.084       .  S
C638        C639   1.407       .  A
C638        C686   1.475       .  S
C639        H642   1.084       .  S
N643        H675   1.035       .  S
N643       C1386   1.359       .  A
N643        C647   1.359       .  A
N644        C651   1.355       .  A
N645        H676   1.036       .  S
N645       C1388   1.358       .  A
N645        C649   1.358       .  A
N646        C653   1.355       .  A
C647        C655   1.387       .  A
C647        C663   1.426       .  A
C648        C664   1.426       .  A
C648       C1394   1.388   1_455  A
C648       N1381   1.359   1_455  A
C649        C657   1.388       .  A
C649        C666   1.425       .  A
C650        C665   1.424       .  A
C650       C1396   1.387       .  A
C650       N1383   1.358   1_455  A
C651        C663   1.422       .  A
C651        C659   1.387       .  A
C652        C666   1.421       .  A
C652        C660   1.387       .  A
C653        C661   1.387       .  A
C653        C664   1.422       .  A
C654        C662   1.387       .  A
C654        C665   1.422       .  A
C655        C656   1.376       .  A
C655        H667   1.082       .  S
C656       C1386   1.388       .  A
C656       H1406   1.082       .  S
C657        C658   1.375       .  A
C657        H669   1.082       .  S
C658       C1388   1.387       .  A
C658       H1408   1.082       .  S
C659        H671   1.082       .  S
C660        H672   1.082       .  S
C661        H673   1.082       .  S
C662        H674   1.082       .  S
C665        C677   1.497       .  S
H668       C1394   1.082   1_455  S
H670       C1396   1.082       .  S
C677        C682   1.407       .  A
C678        C679   1.406       .  A
C678        H683   1.084       .  S
C679        C680   1.404       .  A
C679        C736   1.475       .  S
C680        H684   1.084       .  S
C681        C682   1.407       .  A
C681        C722   1.476       .  S
C682        H685   1.084       .  S
C686        C723   1.462       .  S
C686        N704   1.349       .  A
N687        N704   1.326       .  A
N687        N709   1.321       .  A
N687       Co724   2.091       .  S
C688        C726   1.461       .  S
C688        H733   1.081       .  S
C688        N713   1.345       .  A
H689        C730   1.081       .  S
C690        C694   1.462       .  S
C690        H719   1.081       .  S
C690        N714   1.346       .  A
Co691       N709   2.099       .  S
Co691       N699   2.092       .  S
Co691       N731   2.100       .  S
Co691       N707   2.087       .  S
Co691      Cl735   2.458       .  S
N692        C730   1.345       .  A
N692        N699   1.321       .  A
N692       Co693   2.102       .  S
Co693       N696   2.091       .  S
Co693       N713   2.099       .  S
Co693       N700   2.090       .  S
Co693      Cl735   2.459       .  S
C694        N732   1.350       .  A
N695        N702   1.322       .  A
N695        N725   1.326       .  A
N695       Co728   2.089       .  S
N696        N714   1.322       .  A
N696        N732   1.326       .  A
N697        C726   1.348       .  A
N697        N707   1.325       .  A
H698        C723   1.081       .  S
N699        N720   1.326       .  A
N700        N718   1.321       .  A
N700        N705   1.325       .  A
C701        C729   1.461       .  S
C701        N705   1.349       .  A
N702        C717   1.345       .  A
N702       Co724   2.101       .  S
C703        C706   1.460       .  S
C703        H737   1.081       .  S
C703        N731   1.345       .  A
C706        N727   1.349       .  A
N707        N713   1.321       .  A
N708        C734   1.346       .  A
N708        N710   1.321       .  A
N708       Co724   2.100       .  S
N709        C723   1.345       .  A
N710        N738   1.326       .  A
N710       Co728   2.091       .  S
H711        C734   1.081       .  S
H712        C729   1.081       .  S
N714       Co728   2.104       .  S
N715        N727   1.326       .  A
N715        N731   1.321       .  A
N715       Co724   2.089       .  S
C716        C730   1.463       .  S
C716        N720   1.350       .  A
C717        C736   1.462       .  S
C717        H721   1.081       .  S
N718        C729   1.345       .  A
N718       Co728   2.099       .  S
C722        C734   1.462       .  S
C722        N738   1.349       .  A
Co724      Cl735   2.458       .  S
N725        C736   1.349       .  A
Co728      Cl735   2.459       .  S
C739        C740   1.405   1_556  A
C739        C990   1.409       .  A
C739        C786   1.497       .  S
C740        C741   1.405       .  A
C740        H745   1.084       .  S
C741        C988   1.404   1_554  A
C741        C849   1.473       .  S
C742        C864   1.404       .  A
C742        C743   1.404       .  A
C742        H746   1.084       .  S
C743        C744   1.408       .  A
C743        C839   1.477       .  S
C744        C862   1.409       .  A
C744        H747   1.084       .  S
C748        C995   1.409       .  A
C748        C753   1.406   1_556  A
C748        C787   1.498       .  S
C749        C871   1.409       .  A
C749        C750   1.408       .  A
C749        H754   1.084       .  S
C750        C751   1.404       .  A
C750        C817   1.478       .  S
C751        C875   1.404       .  A
C751        H755   1.084       .  S
C752        C997   1.404   1_554  A
C752        C753   1.406       .  A
C752        C824   1.474       .  S
C753        H756   1.084       .  S
C757        C758   1.406   1_556  A
C757       C1008   1.407       .  A
C757        C789   1.495       .  S
C758        C759   1.406       .  A
C758        H763   1.084       .  S
C759       C1006   1.404   1_554  A
C759        C829   1.474       .  S
C760        C882   1.404       .  A
C760        C761   1.404       .  A
C760        H764   1.084       .  S
C761        C762   1.407       .  A
C761        C809   1.475       .  S
C762        C880   1.407       .  A
C762        H765   1.084       .  S
N766        H798   1.035       .  S
N766        C770   1.359   1_554  A
N767        C774   1.355       .  A
N767       C1144   1.355       .  A
N768        H799   1.036       .  S
N768        C772   1.358       .  A
N769        C776   1.355       .  A
N769       C1146   1.355       .  A
C770        C778   1.387       .  A
C770        C786   1.426       .  A
C771        C787   1.426       .  A
C772        C780   1.388   1_556  A
C772        C789   1.425       .  A
C773        C788   1.424       .  A
C774        C786   1.422       .  A
C774        C782   1.387       .  A
C775        C789   1.421       .  A
C775        C783   1.387       .  A
C775       N1136   1.355   1_545  A
C776        C784   1.387       .  A
C776        C787   1.422       .  A
C777        C785   1.387   1_545  A
C777        C788   1.422       .  A
C777       N1138   1.355   1_545  A
C778        C779   1.376       .  A
C778        H790   1.082       .  S
C780        C781   1.375   1_655  A
C780        H792   1.082       .  S
C782       C1152   1.374       .  A
C782        H794   1.082       .  S
C783       C1151   1.374   1_545  A
C783        H795   1.082       .  S
C784       C1154   1.374       .  A
C784        H796   1.082   1_556  S
C785       C1153   1.374       .  A
C785        H797   1.082   1_565  S
C788        C800   1.497       .  S
C800       C1047   1.406       .  A
C800        C805   1.407   1_556  A
C801        C923   1.406       .  A
C801        C802   1.406       .  A
C801        H806   1.084       .  S
C802        C803   1.404       .  A
C802        C859   1.475       .  S
C803        C927   1.404       .  A
C803        H807   1.084       .  S
C804       C1049   1.404   1_554  A
C804        C805   1.407       .  A
C804        C845   1.476       .  S
C805        H808   1.084       .  S
C809        C846   1.462       .  S
C809        N827   1.349       .  A
N810        N827   1.326       .  A
N810        N832   1.321       .  A
N810       Co847   2.091       .  S
C811        C849   1.461       .  S
C811        H856   1.081       .  S
C811        N836   1.345       .  A
H812        C853   1.081       .  S
C813        C817   1.462       .  S
C813        H842   1.081       .  S
C813        N837   1.346       .  A
Co814       N832   2.099       .  S
Co814       N822   2.092       .  S
Co814       N854   2.100       .  S
Co814       N830   2.087       .  S
Co814      Cl858   2.458       .  S
N815        C853   1.345       .  A
N815        N822   1.321       .  A
N815       Co816   2.102       .  S
Co816       N819   2.091       .  S
Co816       N836   2.099       .  S
Co816       N823   2.090       .  S
Co816      Cl858   2.459       .  S
C817        N855   1.350       .  A
N818        N825   1.322       .  A
N818        N848   1.326       .  A
N818       Co851   2.089       .  S
N819        N837   1.322       .  A
N819        N855   1.326       .  A
N820        C849   1.348       .  A
N820        N830   1.325       .  A
H821        C846   1.081       .  S
N822        N843   1.326       .  A
N823        N841   1.321       .  A
N823        N828   1.325       .  A
C824        C852   1.461       .  S
C824        N828   1.349       .  A
N825        C840   1.345       .  A
N825       Co847   2.101       .  S
C826        C829   1.460       .  S
C826        H860   1.081       .  S
C826        N854   1.345       .  A
C829        N850   1.349       .  A
N830        N836   1.321       .  A
N831        C857   1.346       .  A
N831        N833   1.321       .  A
N831       Co847   2.100       .  S
N832        C846   1.345       .  A
N833        N861   1.326       .  A
N833       Co851   2.091       .  S
H834        C857   1.081       .  S
H835        C852   1.081       .  S
N837       Co851   2.104       .  S
N838        N850   1.326       .  A
N838        N854   1.321       .  A
N838       Co847   2.089       .  S
C839        C853   1.463       .  S
C839        N843   1.350       .  A
C840        C859   1.462       .  S
C840        H844   1.081       .  S
N841        C852   1.345       .  A
N841       Co851   2.099       .  S
C845        C857   1.462       .  S
C845        N861   1.349       .  A
Co847      Cl858   2.458       .  S
N848        C859   1.349       .  A
Co851      Cl858   2.459       .  S
C862        C863   1.405       .  A
C862        C909   1.497       .  S
C863        C864   1.405       .  A
C863        H868   1.084       .  S
C864        C972   1.473       .  S
C865        C987   1.404       .  A
C865        C866   1.404       .  A
C865        H869   1.084       .  S
C866        C867   1.408       .  A
C866        C962   1.477       .  S
C867        C985   1.409       .  A
C867        H870   1.084       .  S
C871        C876   1.406       .  A
C871        C910   1.498       .  S
C872        C994   1.409       .  A
C872        C873   1.408       .  A
C872        H877   1.084       .  S
C873        C874   1.404       .  A
C873        C940   1.478       .  S
C874        C998   1.404       .  A
C874        H878   1.084       .  S
C875        C876   1.406       .  A
C875        C947   1.474       .  S
C876        H879   1.084       .  S
C880        C881   1.406       .  A
C880        C912   1.495       .  S
C881        C882   1.406       .  A
C881        H886   1.084       .  S
C882        C952   1.474       .  S
C883       C1005   1.404       .  A
C883        C884   1.404       .  A
C883        H887   1.084       .  S
C884        C885   1.407       .  A
C884        C932   1.475       .  S
C885       C1003   1.407       .  A
C885        H888   1.084       .  S
N889        H921   1.035       .  S
N889        C893   1.359       .  A
N890        C897   1.355       .  A
N890       C1267   1.355       .  A
N891        H922   1.036       .  S
N891        C895   1.358       .  A
N892        C899   1.355       .  A
N892       C1269   1.355       .  A
C893        C901   1.387       .  A
C893        C909   1.426       .  A
C894        C910   1.426       .  A
C895        C903   1.388       .  A
C895        C912   1.425       .  A
C896        C911   1.424       .  A
C897        C909   1.422       .  A
C897        C905   1.387       .  A
C898        C912   1.421       .  A
C898        C906   1.387       .  A
C898       N1259   1.355   1_545  A
C899        C907   1.387       .  A
C899        C910   1.422       .  A
C900        C908   1.387   1_545  A
C900        C911   1.422       .  A
C900       N1261   1.355   1_545  A
C901        C902   1.376       .  A
C901        H913   1.082       .  S
C903        C904   1.375   1_655  A
C903        H915   1.082       .  S
C905       C1275   1.374       .  A
C905        H917   1.082       .  S
C906       C1274   1.374   1_545  A
C906        H918   1.082       .  S
C907       C1277   1.374       .  A
C907        H919   1.082       .  S
C908       C1276   1.374       .  A
C908        H920   1.082   1_565  S
C911        C923   1.497       .  S
C923        C928   1.407       .  A
C924       C1046   1.406       .  A
C924        C925   1.406       .  A
C924        H929   1.084       .  S
C925        C926   1.404       .  A
C925        C982   1.475       .  S
C926       C1050   1.404       .  A
C926        H930   1.084       .  S
C927        C928   1.407       .  A
C927        C968   1.476       .  S
C928        H931   1.084       .  S
C932        C969   1.462       .  S
C932        N950   1.349       .  A
N933        N950   1.326       .  A
N933        N955   1.321       .  A
N933       Co970   2.091       .  S
C934        C972   1.461       .  S
C934        H979   1.081       .  S
C934        N959   1.345       .  A
H935        C976   1.081       .  S
C936        C940   1.462       .  S
C936        H965   1.081       .  S
C936        N960   1.346       .  A
Co937       N955   2.099       .  S
Co937       N945   2.092       .  S
Co937       N977   2.100       .  S
Co937       N953   2.087       .  S
Co937      Cl981   2.458       .  S
N938        C976   1.345       .  A
N938        N945   1.321       .  A
N938       Co939   2.102       .  S
Co939       N942   2.091       .  S
Co939       N959   2.099       .  S
Co939       N946   2.090       .  S
Co939      Cl981   2.459       .  S
C940        N978   1.350       .  A
N941        N948   1.322       .  A
N941        N971   1.326       .  A
N941       Co974   2.089       .  S
N942        N960   1.322       .  A
N942        N978   1.326       .  A
N943        C972   1.348       .  A
N943        N953   1.325       .  A
H944        C969   1.081       .  S
N945        N966   1.326       .  A
N946        N964   1.321       .  A
N946        N951   1.325       .  A
C947        C975   1.461       .  S
C947        N951   1.349       .  A
N948        C963   1.345       .  A
N948       Co970   2.101       .  S
C949        C952   1.460       .  S
C949        H983   1.081       .  S
C949        N977   1.345       .  A
C952        N973   1.349       .  A
N953        N959   1.321       .  A
N954        C980   1.346       .  A
N954        N956   1.321       .  A
N954       Co970   2.100       .  S
N955        C969   1.345       .  A
N956        N984   1.326       .  A
N956       Co974   2.091       .  S
H957        C980   1.081       .  S
H958        C975   1.081       .  S
N960       Co974   2.104       .  S
N961        N973   1.326       .  A
N961        N977   1.321       .  A
N961       Co970   2.089       .  S
C962        C976   1.463       .  S
C962        N966   1.350       .  A
C963        C982   1.462       .  S
C963        H967   1.081       .  S
N964        C975   1.345       .  A
N964       Co974   2.099       .  S
C968        C980   1.462       .  S
C968        N984   1.349       .  A
Co970      Cl981   2.458       .  S
N971        C982   1.349       .  A
Co974      Cl981   2.459       .  S
C985        C986   1.405       .  A
C985       C1032   1.497       .  S
C986        C987   1.405       .  A
C986        H991   1.084       .  S
C987       C1095   1.473       .  S
C988        C989   1.404       .  A
C988        H992   1.084       .  S
C989        C990   1.408       .  A
C989       C1085   1.477       .  S
C990        H993   1.084       .  S
C994        C999   1.406       .  A
C994       C1033   1.498       .  S
C995        C996   1.408       .  A
C995       H1000   1.084       .  S
C996        C997   1.404       .  A
C996       C1063   1.478       .  S
C997       H1001   1.084       .  S
C998        C999   1.406       .  A
C998       C1070   1.474       .  S
C999       H1002   1.084       .  S
C1003      C1004   1.406       .  A
C1003      C1035   1.495       .  S
C1004      C1005   1.406       .  A
C1004      H1009   1.084       .  S
C1005      C1075   1.474       .  S
C1006      C1007   1.404       .  A
C1006      H1010   1.084       .  S
C1007      C1008   1.407       .  A
C1007      C1055   1.475       .  S
C1008      H1011   1.084       .  S
N1012      H1044   1.035       .  S
N1012      C1016   1.359       .  A
N1013      C1020   1.355       .  A
N1013      C1390   1.355       .  A
N1014      H1045   1.036       .  S
N1014      C1018   1.358       .  A
N1015      C1022   1.355       .  A
N1015      C1392   1.355       .  A
C1016      C1024   1.387       .  A
C1016      C1032   1.426       .  A
C1017      C1033   1.426       .  A
C1018      C1026   1.388       .  A
C1018      C1035   1.425       .  A
C1019      C1034   1.424       .  A
C1020      C1032   1.422       .  A
C1020      C1028   1.387       .  A
C1021      C1035   1.421       .  A
C1021      C1029   1.387       .  A
C1021      N1382   1.355   1_545  A
C1022      C1030   1.387       .  A
C1022      C1033   1.422       .  A
C1023      C1031   1.387   1_545  A
C1023      C1034   1.422       .  A
C1023      N1384   1.355   1_545  A
C1024      C1025   1.376       .  A
C1024      H1036   1.082       .  S
C1026      C1027   1.375   1_655  A
C1026      H1038   1.082       .  S
C1028      C1398   1.374       .  A
C1028      H1040   1.082       .  S
C1029      C1397   1.374   1_545  A
C1029      H1041   1.082       .  S
C1030      C1400   1.374       .  A
C1030      H1042   1.082       .  S
C1031      C1399   1.374       .  A
C1031      H1043   1.082   1_565  S
C1034      C1046   1.497       .  S
C1046      C1051   1.407       .  A
C1047      C1048   1.406       .  A
C1047      H1052   1.084       .  S
C1048      C1049   1.404       .  A
C1048      C1105   1.475       .  S
C1049      H1053   1.084       .  S
C1050      C1051   1.407       .  A
C1050      C1091   1.476       .  S
C1051      H1054   1.084       .  S
C1055      C1092   1.462       .  S
C1055      N1073   1.349       .  A
N1056      N1073   1.326       .  A
N1056      N1078   1.321       .  A
N1056     Co1093   2.091       .  S
C1057      C1095   1.461       .  S
C1057      H1102   1.081       .  S
C1057      N1082   1.345       .  A
H1058      C1099   1.081       .  S
C1059      C1063   1.462       .  S
C1059      H1088   1.081       .  S
C1059      N1083   1.346       .  A
Co1060     N1078   2.099       .  S
Co1060     N1068   2.092       .  S
Co1060     N1100   2.100       .  S
Co1060     N1076   2.087       .  S
Co1060    Cl1104   2.458       .  S
N1061      C1099   1.345       .  A
N1061      N1068   1.321       .  A
N1061     Co1062   2.102       .  S
Co1062     N1065   2.091       .  S
Co1062     N1082   2.099       .  S
Co1062     N1069   2.090       .  S
Co1062    Cl1104   2.459       .  S
C1063      N1101   1.350       .  A
N1064      N1071   1.322       .  A
N1064      N1094   1.326       .  A
N1064     Co1097   2.089       .  S
N1065      N1083   1.322       .  A
N1065      N1101   1.326       .  A
N1066      C1095   1.348       .  A
N1066      N1076   1.325       .  A
H1067      C1092   1.081       .  S
N1068      N1089   1.326       .  A
N1069      N1087   1.321       .  A
N1069      N1074   1.325       .  A
C1070      C1098   1.461       .  S
C1070      N1074   1.349       .  A
N1071      C1086   1.345       .  A
N1071     Co1093   2.101       .  S
C1072      C1075   1.460       .  S
C1072      H1106   1.081       .  S
C1072      N1100   1.345       .  A
C1075      N1096   1.349       .  A
N1076      N1082   1.321       .  A
N1077      C1103   1.346       .  A
N1077      N1079   1.321       .  A
N1077     Co1093   2.100       .  S
N1078      C1092   1.345       .  A
N1079      N1107   1.326       .  A
N1079     Co1097   2.091       .  S
H1080      C1103   1.081       .  S
H1081      C1098   1.081       .  S
N1083     Co1097   2.104       .  S
N1084      N1096   1.326       .  A
N1084      N1100   1.321       .  A
N1084     Co1093   2.089       .  S
C1085      C1099   1.463       .  S
C1085      N1089   1.350       .  A
C1086      C1105   1.462       .  S
C1086      H1090   1.081       .  S
N1087      C1098   1.345       .  A
N1087     Co1097   2.099       .  S
C1091      C1103   1.462       .  S
C1091      N1107   1.349       .  A
Co1093    Cl1104   2.458       .  S
N1094      C1105   1.349       .  A
Co1097    Cl1104   2.459       .  S
C1108      C1109   1.405   1_556  A
C1108      C1359   1.409       .  A
C1108      C1155   1.497       .  S
C1109      C1110   1.405       .  A
C1109      H1114   1.084       .  S
C1110      C1357   1.404   1_554  A
C1110      C1218   1.473       .  S
C1111      C1233   1.404       .  A
C1111      C1112   1.404       .  A
C1111      H1115   1.084       .  S
C1112      C1113   1.408       .  A
C1112      C1208   1.477       .  S
C1113      C1231   1.409       .  A
C1113      H1116   1.084       .  S
C1117      C1364   1.409       .  A
C1117      C1122   1.406   1_556  A
C1117      C1156   1.498       .  S
C1118      C1240   1.409       .  A
C1118      C1119   1.408       .  A
C1118      H1123   1.084       .  S
C1119      C1120   1.404       .  A
C1119      C1186   1.478       .  S
C1120      C1244   1.404       .  A
C1120      H1124   1.084       .  S
C1121      C1366   1.404   1_554  A
C1121      C1122   1.406       .  A
C1121      C1193   1.474       .  S
C1122      H1125   1.084       .  S
C1126      C1127   1.406   1_556  A
C1126      C1377   1.407       .  A
C1126      C1158   1.495       .  S
C1127      C1128   1.406       .  A
C1127      H1132   1.084       .  S
C1128      C1375   1.404   1_554  A
C1128      C1198   1.474       .  S
C1129      C1251   1.404       .  A
C1129      C1130   1.404       .  A
C1129      H1133   1.084       .  S
C1130      C1131   1.407       .  A
C1130      C1178   1.475       .  S
C1131      C1249   1.407       .  A
C1131      H1134   1.084       .  S
N1135      H1167   1.035       .  S
N1135      C1139   1.359   1_554  A
N1136      C1143   1.355       .  A
N1137      H1168   1.036       .  S
N1137      C1141   1.358       .  A
N1138      C1145   1.355       .  A
C1139      C1147   1.387       .  A
C1139      C1155   1.426       .  A
C1140      C1156   1.426       .  A
C1141      C1149   1.388   1_556  A
C1141      C1158   1.425       .  A
C1142      C1157   1.424       .  A
C1143      C1155   1.422       .  A
C1143      C1151   1.387       .  A
C1144      C1158   1.421       .  A
C1144      C1152   1.387       .  A
C1145      C1153   1.387       .  A
C1145      C1156   1.422       .  A
C1146      C1154   1.387       .  A
C1146      C1157   1.422       .  A
C1147      C1148   1.376       .  A
C1147      H1159   1.082       .  S
C1149      C1150   1.375   1_655  A
C1149      H1161   1.082       .  S
C1151      H1163   1.082       .  S
C1152      H1164   1.082       .  S
C1153      H1165   1.082   1_556  S
C1154      H1166   1.082       .  S
C1157      C1169   1.497       .  S
C1169      C1416   1.406       .  A
C1169      C1174   1.407   1_556  A
C1170      C1292   1.406       .  A
C1170      C1171   1.406       .  A
C1170      H1175   1.084       .  S
C1171      C1172   1.404       .  A
C1171      C1228   1.475       .  S
C1172      C1296   1.404       .  A
C1172      H1176   1.084       .  S
C1173      C1418   1.404   1_554  A
C1173      C1174   1.407       .  A
C1173      C1214   1.476       .  S
C1174      H1177   1.084       .  S
C1178      C1215   1.462       .  S
C1178      N1196   1.349       .  A
N1179      N1196   1.326       .  A
N1179      N1201   1.321       .  A
N1179     Co1216   2.091       .  S
C1180      C1218   1.461       .  S
C1180      H1225   1.081       .  S
C1180      N1205   1.345       .  A
H1181      C1222   1.081       .  S
C1182      C1186   1.462       .  S
C1182      H1211   1.081       .  S
C1182      N1206   1.346       .  A
Co1183     N1201   2.099       .  S
Co1183     N1191   2.092       .  S
Co1183     N1223   2.100       .  S
Co1183     N1199   2.087       .  S
Co1183    Cl1227   2.458       .  S
N1184      C1222   1.345       .  A
N1184      N1191   1.321       .  A
N1184     Co1185   2.102       .  S
Co1185     N1188   2.091       .  S
Co1185     N1205   2.099       .  S
Co1185     N1192   2.090       .  S
Co1185    Cl1227   2.459       .  S
C1186      N1224   1.350       .  A
N1187      N1194   1.322       .  A
N1187      N1217   1.326       .  A
N1187     Co1220   2.089       .  S
N1188      N1206   1.322       .  A
N1188      N1224   1.326       .  A
N1189      C1218   1.348       .  A
N1189      N1199   1.325       .  A
H1190      C1215   1.081       .  S
N1191      N1212   1.326       .  A
N1192      N1210   1.321       .  A
N1192      N1197   1.325       .  A
C1193      C1221   1.461       .  S
C1193      N1197   1.349       .  A
N1194      C1209   1.345       .  A
N1194     Co1216   2.101       .  S
C1195      C1198   1.460       .  S
C1195      H1229   1.081       .  S
C1195      N1223   1.345       .  A
C1198      N1219   1.349       .  A
N1199      N1205   1.321       .  A
N1200      C1226   1.346       .  A
N1200      N1202   1.321       .  A
N1200     Co1216   2.100       .  S
N1201      C1215   1.345       .  A
N1202      N1230   1.326       .  A
N1202     Co1220   2.091       .  S
H1203      C1226   1.081       .  S
H1204      C1221   1.081       .  S
N1206     Co1220   2.104       .  S
N1207      N1219   1.326       .  A
N1207      N1223   1.321       .  A
N1207     Co1216   2.089       .  S
C1208      C1222   1.463       .  S
C1208      N1212   1.350       .  A
C1209      C1228   1.462       .  S
C1209      H1213   1.081       .  S
N1210      C1221   1.345       .  A
N1210     Co1220   2.099       .  S
C1214      C1226   1.462       .  S
C1214      N1230   1.349       .  A
Co1216    Cl1227   2.458       .  S
N1217      C1228   1.349       .  A
Co1220    Cl1227   2.459       .  S
C1231      C1232   1.405       .  A
C1231      C1278   1.497       .  S
C1232      C1233   1.405       .  A
C1232      H1237   1.084       .  S
C1233      C1341   1.473       .  S
C1234      C1356   1.404       .  A
C1234      C1235   1.404       .  A
C1234      H1238   1.084       .  S
C1235      C1236   1.408       .  A
C1235      C1331   1.477       .  S
C1236      C1354   1.409       .  A
C1236      H1239   1.084       .  S
C1240      C1245   1.406       .  A
C1240      C1279   1.498       .  S
C1241      C1363   1.409       .  A
C1241      C1242   1.408       .  A
C1241      H1246   1.084       .  S
C1242      C1243   1.404       .  A
C1242      C1309   1.478       .  S
C1243      C1367   1.404       .  A
C1243      H1247   1.084       .  S
C1244      C1245   1.406       .  A
C1244      C1316   1.474       .  S
C1245      H1248   1.084       .  S
C1249      C1250   1.406       .  A
C1249      C1281   1.495       .  S
C1250      C1251   1.406       .  A
C1250      H1255   1.084       .  S
C1251      C1321   1.474       .  S
C1252      C1374   1.404       .  A
C1252      C1253   1.404       .  A
C1252      H1256   1.084       .  S
C1253      C1254   1.407       .  A
C1253      C1301   1.475       .  S
C1254      C1372   1.407       .  A
C1254      H1257   1.084       .  S
N1258      H1290   1.035       .  S
N1258      C1262   1.359       .  A
N1259      C1266   1.355       .  A
N1260      H1291   1.036       .  S
N1260      C1264   1.358       .  A
N1261      C1268   1.355       .  A
C1262      C1270   1.387       .  A
C1262      C1278   1.426       .  A
C1263      C1279   1.426       .  A
C1264      C1272   1.388       .  A
C1264      C1281   1.425       .  A
C1265      C1280   1.424       .  A
C1266      C1278   1.422       .  A
C1266      C1274   1.387       .  A
C1267      C1281   1.421       .  A
C1267      C1275   1.387       .  A
C1268      C1276   1.387       .  A
C1268      C1279   1.422       .  A
C1269      C1277   1.387       .  A
C1269      C1280   1.422       .  A
C1270      C1271   1.376       .  A
C1270      H1282   1.082       .  S
C1272      C1273   1.375   1_655  A
C1272      H1284   1.082       .  S
C1274      H1286   1.082       .  S
C1275      H1287   1.082       .  S
C1276      H1288   1.082       .  S
C1277      H1289   1.082       .  S
C1280      C1292   1.497       .  S
C1292      C1297   1.407       .  A
C1293      C1415   1.406       .  A
C1293      C1294   1.406       .  A
C1293      H1298   1.084       .  S
C1294      C1295   1.404       .  A
C1294      C1351   1.475       .  S
C1295      C1419   1.404       .  A
C1295      H1299   1.084       .  S
C1296      C1297   1.407       .  A
C1296      C1337   1.476       .  S
C1297      H1300   1.084       .  S
C1301      C1338   1.462       .  S
C1301      N1319   1.349       .  A
N1302      N1319   1.326       .  A
N1302      N1324   1.321       .  A
N1302     Co1339   2.091       .  S
C1303      C1341   1.461       .  S
C1303      H1348   1.081       .  S
C1303      N1328   1.345       .  A
H1304      C1345   1.081       .  S
C1305      C1309   1.462       .  S
C1305      H1334   1.081       .  S
C1305      N1329   1.346       .  A
Co1306     N1324   2.099       .  S
Co1306     N1314   2.092       .  S
Co1306     N1346   2.100       .  S
Co1306     N1322   2.087       .  S
Co1306    Cl1350   2.458       .  S
N1307      C1345   1.345       .  A
N1307      N1314   1.321       .  A
N1307     Co1308   2.102       .  S
Co1308     N1311   2.091       .  S
Co1308     N1328   2.099       .  S
Co1308     N1315   2.090       .  S
Co1308    Cl1350   2.459       .  S
C1309      N1347   1.350       .  A
N1310      N1317   1.322       .  A
N1310      N1340   1.326       .  A
N1310     Co1343   2.089       .  S
N1311      N1329   1.322       .  A
N1311      N1347   1.326       .  A
N1312      C1341   1.348       .  A
N1312      N1322   1.325       .  A
H1313      C1338   1.081       .  S
N1314      N1335   1.326       .  A
N1315      N1333   1.321       .  A
N1315      N1320   1.325       .  A
C1316      C1344   1.461       .  S
C1316      N1320   1.349       .  A
N1317      C1332   1.345       .  A
N1317     Co1339   2.101       .  S
C1318      C1321   1.460       .  S
C1318      H1352   1.081       .  S
C1318      N1346   1.345       .  A
C1321      N1342   1.349       .  A
N1322      N1328   1.321       .  A
N1323      C1349   1.346       .  A
N1323      N1325   1.321       .  A
N1323     Co1339   2.100       .  S
N1324      C1338   1.345       .  A
N1325      N1353   1.326       .  A
N1325     Co1343   2.091       .  S
H1326      C1349   1.081       .  S
H1327      C1344   1.081       .  S
N1329     Co1343   2.104       .  S
N1330      N1342   1.326       .  A
N1330      N1346   1.321       .  A
N1330     Co1339   2.089       .  S
C1331      C1345   1.463       .  S
C1331      N1335   1.350       .  A
C1332      C1351   1.462       .  S
C1332      H1336   1.081       .  S
N1333      C1344   1.345       .  A
N1333     Co1343   2.099       .  S
C1337      C1349   1.462       .  S
C1337      N1353   1.349       .  A
Co1339    Cl1350   2.458       .  S
N1340      C1351   1.349       .  A
Co1343    Cl1350   2.459       .  S
C1354      C1355   1.405       .  A
C1354      C1401   1.497       .  S
C1355      C1356   1.405       .  A
C1355      H1360   1.084       .  S
C1356      C1464   1.473       .  S
C1357      C1358   1.404       .  A
C1357      H1361   1.084       .  S
C1358      C1359   1.408       .  A
C1358      C1454   1.477       .  S
C1359      H1362   1.084       .  S
C1363      C1368   1.406       .  A
C1363      C1402   1.498       .  S
C1364      C1365   1.408       .  A
C1364      H1369   1.084       .  S
C1365      C1366   1.404       .  A
C1365      C1432   1.478       .  S
C1366      H1370   1.084       .  S
C1367      C1368   1.406       .  A
C1367      C1439   1.474       .  S
C1368      H1371   1.084       .  S
C1372      C1373   1.406       .  A
C1372      C1404   1.495       .  S
C1373      C1374   1.406       .  A
C1373      H1378   1.084       .  S
C1374      C1444   1.474       .  S
C1375      C1376   1.404       .  A
C1375      H1379   1.084       .  S
C1376      C1377   1.407       .  A
C1376      C1424   1.475       .  S
C1377      H1380   1.084       .  S
N1381      H1413   1.035       .  S
N1381      C1385   1.359       .  A
N1382      C1389   1.355       .  A
N1383      H1414   1.036       .  S
N1383      C1387   1.358       .  A
N1384      C1391   1.355       .  A
C1385      C1393   1.387       .  A
C1385      C1401   1.426       .  A
C1386      C1402   1.426       .  A
C1387      C1395   1.388       .  A
C1387      C1404   1.425       .  A
C1388      C1403   1.424       .  A
C1389      C1401   1.422       .  A
C1389      C1397   1.387       .  A
C1390      C1404   1.421       .  A
C1390      C1398   1.387       .  A
C1391      C1399   1.387       .  A
C1391      C1402   1.422       .  A
C1392      C1400   1.387       .  A
C1392      C1403   1.422       .  A
C1393      C1394   1.376       .  A
C1393      H1405   1.082       .  S
C1395      C1396   1.375   1_655  A
C1395      H1407   1.082       .  S
C1397      H1409   1.082       .  S
C1398      H1410   1.082       .  S
C1399      H1411   1.082       .  S
C1400      H1412   1.082       .  S
C1403      C1415   1.497       .  S
C1415      C1420   1.407       .  A
C1416      C1417   1.406       .  A
C1416      H1421   1.084       .  S
C1417      C1418   1.404       .  A
C1417      C1474   1.475       .  S
C1418      H1422   1.084       .  S
C1419      C1420   1.407       .  A
C1419      C1460   1.476       .  S
C1420      H1423   1.084       .  S
C1424      C1461   1.462       .  S
C1424      N1442   1.349       .  A
N1425      N1442   1.326       .  A
N1425      N1447   1.321       .  A
N1425     Co1462   2.091       .  S
C1426      C1464   1.461       .  S
C1426      H1471   1.081       .  S
C1426      N1451   1.345       .  A
H1427      C1468   1.081       .  S
C1428      C1432   1.462       .  S
C1428      H1457   1.081       .  S
C1428      N1452   1.346       .  A
Co1429     N1447   2.099       .  S
Co1429     N1437   2.092       .  S
Co1429     N1469   2.100       .  S
Co1429     N1445   2.087       .  S
Co1429    Cl1473   2.458       .  S
N1430      C1468   1.345       .  A
N1430      N1437   1.321       .  A
N1430     Co1431   2.102       .  S
Co1431     N1434   2.091       .  S
Co1431     N1451   2.099       .  S
Co1431     N1438   2.090       .  S
Co1431    Cl1473   2.459       .  S
C1432      N1470   1.350       .  A
N1433      N1440   1.322       .  A
N1433      N1463   1.326       .  A
N1433     Co1466   2.089       .  S
N1434      N1452   1.322       .  A
N1434      N1470   1.326       .  A
N1435      C1464   1.348       .  A
N1435      N1445   1.325       .  A
H1436      C1461   1.081       .  S
N1437      N1458   1.326       .  A
N1438      N1456   1.321       .  A
N1438      N1443   1.325       .  A
C1439      C1467   1.461       .  S
C1439      N1443   1.349       .  A
N1440      C1455   1.345       .  A
N1440     Co1462   2.101       .  S
C1441      C1444   1.460       .  S
C1441      H1475   1.081       .  S
C1441      N1469   1.345       .  A
C1444      N1465   1.349       .  A
N1445      N1451   1.321       .  A
N1446      C1472   1.346       .  A
N1446      N1448   1.321       .  A
N1446     Co1462   2.100       .  S
N1447      C1461   1.345       .  A
N1448      N1476   1.326       .  A
N1448     Co1466   2.091       .  S
H1449      C1472   1.081       .  S
H1450      C1467   1.081       .  S
N1452     Co1466   2.104       .  S
N1453      N1465   1.326       .  A
N1453      N1469   1.321       .  A
N1453     Co1462   2.089       .  S
C1454      C1468   1.463       .  S
C1454      N1458   1.350       .  A
C1455      C1474   1.462       .  S
C1455      H1459   1.081       .  S
N1456      C1467   1.345       .  A
N1456     Co1466   2.099       .  S
C1460      C1472   1.462       .  S
C1460      N1476   1.349       .  A
Co1462    Cl1473   2.458       .  S
N1463      C1474   1.349       .  A
Co1466    Cl1473   2.459       .  S
