geometry optimzed in LAMMPS
_audit_creation_date              2020-11-30 
_audit_creation_method            'lammps2cif' 
_symmetry_space_group_name_H-M    'P1' 
_symmetry_Int_Tables_number       1 
_symmetry_cell_setting            triclinic 
loop_ 
_symmetry_equiv_pos_as_xyz 
  x,y,z 
_cell_length_a                    101.5784503 
_cell_length_b                    101.6665370744694 
_cell_length_c                    101.65208303076776 
_cell_angle_alpha                 90.06627318899108 
_cell_angle_beta                  89.98052900430072 
_cell_angle_gamma                 90.05771758044739 
loop_ 
_atom_site_label 
_atom_site_type_symbol 
_atom_site_fract_x 
_atom_site_fract_y 
_atom_site_fract_z 
_atom_site_charge 
N1          N  0.16074440  0.46639850  0.06710333    -0.25800
N2          N  0.17291556  0.46290529  0.06419120    -0.33600
C3          C  0.17815274  0.45630664  0.07433594     0.02600
C4          C  0.16891355  0.45557013  0.08430604     0.08600
C5          C  0.15793978  0.46211322  0.07935740    -0.04500
H6          H  0.18834334  0.45326905  0.07482353     0.09300
H7          H  0.14880453  0.46406865  0.08444951     0.10500
Cu8        Cu  0.18308162  0.46988175  0.04814680     0.44200
Cu9        Cu  0.14962023  0.47817689  0.05438459     0.42000
Cu10       Cu  0.16942249  0.49686358  0.03013412     0.43900
N11         N  0.19412002  0.48171613  0.03598902    -0.33100
N12         N  0.18953034  0.49216433  0.02978828    -0.27400
C13         C  0.19962799  0.49803422  0.02341414    -0.03500
C14         C  0.21100582  0.49077926  0.02569329     0.08700
C15         C  0.20707158  0.48056589  0.03372947     0.02500
H16         H  0.19869301  0.50665788  0.01726606     0.10200
H17         H  0.21320599  0.47287603  0.03776988     0.09200
N18         N  0.14877878  0.49723851  0.03126653    -0.34600
N19         N  0.14169138  0.49042299  0.03982076    -0.26800
C20         C  0.12881338  0.49257337  0.03742627    -0.02000
C21         C  0.12761907  0.50115371  0.02685613     0.06600
C22         C  0.14054928  0.50387451  0.02326780     0.04700
H23         H  0.12090009  0.48797698  0.04285989     0.09800
H24         H  0.14380119  0.51030062  0.01544374     0.08600
N25         N  0.35005360  0.47748166  0.93893295    -0.25800
N26         N  0.33786959  0.47412951  0.94202695    -0.33600
C27         C  0.33221065  0.46794297  0.93185657     0.02600
C28         C  0.34114608  0.46722711  0.92166183     0.08600
C29         C  0.35246758  0.47331672  0.92650629    -0.04500
H30         H  0.32222845  0.46421916  0.93192993     0.09300
H31         H  0.36163277  0.47483686  0.92130440     0.10500
Cu32       Cu  0.32853919  0.47876090  0.95933345     0.44200
Cu33       Cu  0.36198156  0.48792694  0.95234213     0.42000
Cu34       Cu  0.34341541  0.50046811  0.98165732     0.43900
N35         N  0.31823267  0.48723230  0.97450587    -0.33100
N36         N  0.32352117  0.49568217  0.98281698    -0.27400
C37         C  0.31402638  0.50016196  0.99094159    -0.03500
C38         C  0.30217699  0.49426313  0.98741500     0.08700
C39         C  0.30532040  0.48608154  0.97698949     0.02500
H40         H  0.31557997  0.50739759  0.99859007     0.10200
H41         H  0.29873168  0.47975491  0.97152766     0.09200
N42         N  0.36355700  0.50278017  0.97852952    -0.34600
N43         N  0.37033556  0.49821045  0.96835292    -0.26800
C44         C  0.38315192  0.50130170  0.97012185    -0.02000
C45         C  0.38446253  0.50822404  0.98185125     0.06600
C46         C  0.37182018  0.50892889  0.98684786     0.04700
H47         H  0.39093546  0.49883508  0.96327991     0.09800
H48         H  0.36883081  0.51340183  0.99604889     0.08600
N49         N  0.22334278  0.61425473  0.32642638    -0.25800
N50         N  0.22752965  0.60200104  0.32726733    -0.33600
C51         C  0.22238573  0.59632151  0.33798573     0.02600
C52         C  0.21457282  0.60539333  0.34449346     0.08600
C53         C  0.21540612  0.61671953  0.33680080    -0.04500
H54         H  0.22381755  0.58608324  0.34043970     0.09300
H55         H  0.21062329  0.62604875  0.33855459     0.10500
Cu56       Cu  0.23878957  0.59266526  0.31326893     0.44200
Cu57       Cu  0.22873001  0.62632679  0.31065749     0.42000
Cu58       Cu  0.24550004  0.60853604  0.28319227     0.43900
N59         N  0.24525929  0.58257658  0.29696290    -0.33100
N60         N  0.24745229  0.58821505  0.28548072    -0.27400
C61         C  0.24961669  0.57872450  0.27643838    -0.03500
C62         C  0.24854685  0.56656386  0.28259964     0.08700
C63         C  0.24585788  0.56946542  0.29561237     0.02500
H64         H  0.25094604  0.58049670  0.26603278     0.10200
H65         H  0.24375590  0.56255043  0.30341732     0.09200
N66         N  0.24330931  0.62893837  0.28455025    -0.34600
N67         N  0.23737605  0.63530494  0.29425787    -0.26800
C68         C  0.23870795  0.64834225  0.29224723    -0.02000
C69         C  0.24585824  0.65035597  0.28076936     0.06600
C70         C  0.24849844  0.63777010  0.27616911     0.04700
H71         H  0.23523525  0.65578159  0.29901554     0.09800
H72         H  0.25395689  0.63512836  0.26742969     0.08600
N73         N  0.21888496  0.43015506  0.19024745    -0.25800
N74         N  0.21725852  0.44292824  0.19201674    -0.33600
C75         C  0.21015618  0.44783672  0.18205266     0.02600
C76         C  0.20719714  0.43777296  0.17334810     0.08600
C77         C  0.21284549  0.42662958  0.17894013    -0.04500
H78         H  0.20740106  0.45807373  0.18125602     0.09300
H79         H  0.21289151  0.41677450  0.17493174     0.10500
Cu80       Cu  0.22518798  0.45368389  0.20736798     0.44200
Cu81       Cu  0.22946358  0.41855701  0.20355961     0.42000
Cu82       Cu  0.24275339  0.43658768  0.23229450     0.43900
N83         N  0.23385288  0.46318349  0.22314492    -0.33100
N84         N  0.24028454  0.45695174  0.23253351    -0.27400
C85         C  0.24437465  0.46581510  0.24152452    -0.03500
C86         C  0.24028775  0.47826067  0.23759114     0.08700
C87         C  0.23370067  0.47612381  0.22582762     0.02500
H88         H  0.24962718  0.46330772  0.25042191     0.10200
H89         H  0.22913069  0.48341217  0.21958441     0.09200
N90         N  0.24425031  0.41630152  0.22948796    -0.34600
N91         N  0.23968318  0.40980965  0.21915559    -0.26800
C92         C  0.24246538  0.39693020  0.22063283    -0.02000
C93         C  0.24908654  0.39515448  0.23247140     0.06600
C94         C  0.24997536  0.40772019  0.23776758     0.04700
H95         H  0.23992792  0.38945089  0.21350238     0.09800
H96         H  0.25423981  0.41047531  0.24711657     0.08600
N97         N  0.34995193  0.56066874  0.56510131    -0.25800
N98         N  0.33706943  0.55928256  0.56392981    -0.33600
C99         C  0.33097460  0.56563490  0.57376113     0.02600
C100        C  0.34032474  0.57148001  0.58173029     0.08600
C101        C  0.35234587  0.56799232  0.57600726    -0.04500
H102        H  0.32040836  0.56587126  0.57503824     0.09300
H103        H  0.36204553  0.57083043  0.57934057     0.10500
Cu104      Cu  0.32777397  0.54924860  0.54896654     0.44200
Cu105      Cu  0.36287634  0.55260596  0.55081775     0.42000
Cu106      Cu  0.34573272  0.53617353  0.52233960     0.43900
N107        N  0.31874091  0.54018192  0.53325387    -0.33100
N108        N  0.32516638  0.53546701  0.52300491    -0.27400
C109        C  0.31630365  0.53106908  0.51411023    -0.03500
C110        C  0.30371156  0.53306377  0.51916540     0.08700
C111        C  0.30575402  0.53889043  0.53129956     0.02500
H112        H  0.31883148  0.52690420  0.50465065     0.10200
H113        H  0.29832952  0.54253684  0.53799605     0.09200
N114        N  0.36615122  0.53802109  0.52449870    -0.34600
N115        N  0.37237323  0.54374287  0.53444378    -0.26800
C116        C  0.38548290  0.54274190  0.53230553    -0.02000
C117        C  0.38767210  0.53609064  0.52048378     0.06600
C118        C  0.37508850  0.53328658  0.51593626     0.04700
H119        H  0.39286420  0.54665861  0.53888705     0.09800
H120        H  0.37251315  0.52782489  0.50718123     0.08600
N121        N  0.16138715  0.56607851  0.44350477    -0.25800
N122        N  0.17332560  0.56996057  0.44692116    -0.33600
C123        C  0.17823823  0.57788797  0.43758163     0.02600
C124        C  0.16908572  0.57899825  0.42761744     0.08600
C125        C  0.15850726  0.57129009  0.43162994    -0.04500
H126        H  0.18823474  0.58156376  0.43746451     0.09300
H127        H  0.14968118  0.56916201  0.42607778     0.10500
Cu128      Cu  0.18388394  0.56184580  0.46220125     0.44200
Cu129      Cu  0.15049128  0.55307471  0.45523914     0.42000
Cu130      Cu  0.17000968  0.53519644  0.48030786     0.43900
N131        N  0.19495506  0.54976200  0.47413894    -0.33100
N132        N  0.19017418  0.53945535  0.48044996    -0.27400
C133        C  0.20018620  0.53328976  0.48663612    -0.03500
C134        C  0.21172621  0.54020527  0.48413468     0.08700
C135        C  0.20798265  0.55054735  0.47618177     0.02500
H136        H  0.19911315  0.52463352  0.49272382     0.10200
H137        H  0.21431059  0.55803059  0.47201943     0.09200
N138        N  0.14944544  0.53463011  0.47884776    -0.34600
N139        N  0.14243521  0.54099482  0.46990847    -0.26800
C140        C  0.12954211  0.53879792  0.47222465    -0.02000
C141        C  0.12828928  0.53065771  0.48313775     0.06600
C142        C  0.14117526  0.52826418  0.48702238     0.04700
H143        H  0.12166956  0.54284978  0.46633840     0.09800
H144        H  0.14435900  0.52261657  0.49544549     0.08600
N145        N  0.29853087  0.61598215  0.68625664    -0.25800
N146        N  0.30257472  0.60414744  0.68972936    -0.33600
C147        C  0.30839936  0.59824859  0.67947976     0.02600
C148        C  0.30793479  0.60652798  0.66867842     0.08600
C149        C  0.30169597  0.61784435  0.67342906    -0.04500
H150        H  0.31253738  0.58847519  0.67993853     0.09300
H151        H  0.29925128  0.62657271  0.66788926     0.10500
Cu152      Cu  0.29870595  0.59531170  0.70757239     0.44200
Cu153      Cu  0.28859333  0.62810987  0.69992763     0.42000
Cu154      Cu  0.28030769  0.61131548  0.73204700     0.43900
N155        N  0.29168521  0.58551913  0.72389250    -0.33100
N156        N  0.28441631  0.59115983  0.73305643    -0.27400
C157        C  0.28064026  0.58186309  0.74178776    -0.03500
C158        C  0.28594118  0.56984146  0.73787984     0.08700
C159        C  0.29282998  0.57263611  0.72647958     0.02500
H160        H  0.27453005  0.58370453  0.75030857     0.10200
H161        H  0.29795942  0.56571489  0.72022790     0.09200
N162        N  0.27778667  0.63137403  0.72798820    -0.34600
N163        N  0.28019383  0.63731151  0.71661083    -0.26800
C164        C  0.27713198  0.65019599  0.71786290    -0.02000
C165        C  0.27282388  0.65251076  0.73062458     0.06600
C166        C  0.27340703  0.64035004  0.73670240     0.04700
H167        H  0.27837864  0.65744444  0.71018204     0.09800
H168        H  0.27080930  0.63816644  0.74678693     0.08600
N169        N  0.29978527  0.42630227  0.81768370    -0.25800
N170        N  0.30301325  0.43872412  0.81572482    -0.33600
C171        C  0.31063494  0.44292822  0.82564813     0.02600
C172        C  0.31232316  0.43272161  0.83446919     0.08600
C173        C  0.30519166  0.42229425  0.82914808    -0.04500
H174        H  0.31419613  0.45290980  0.82666225     0.09300
H175        H  0.30397907  0.41258474  0.83330642     0.10500
Cu176      Cu  0.29592190  0.44981732  0.80032011     0.44200
Cu177      Cu  0.28815691  0.41617347  0.80402432     0.42000
Cu178      Cu  0.27748171  0.43475534  0.77410160     0.43900
N179        N  0.28735434  0.46041060  0.78531394    -0.33100
N180        N  0.28086970  0.45515443  0.77533462    -0.27400
C181        C  0.27700151  0.46496701  0.76724327    -0.03500
C182        C  0.28112202  0.47690884  0.77257941     0.08700
C183        C  0.28763841  0.47354438  0.78401150     0.02500
H184        H  0.27149468  0.46354547  0.75825255     0.10200
H185        H  0.29254586  0.48014424  0.79076940     0.09200
N186        N  0.27451799  0.41447464  0.77718962    -0.34600
N187        N  0.27789926  0.40812204  0.78806187    -0.26800
C188        C  0.27414431  0.39545853  0.78699011    -0.02000
C189        C  0.26821251  0.39358622  0.77486816     0.06600
C190        C  0.26867830  0.40586879  0.76889678     0.04700
H191        H  0.27591388  0.38805156  0.79440580     0.09800
H192        H  0.26488649  0.40840763  0.75929152     0.08600
N193        N  0.54970905  0.59028491  0.34510766    -0.25800
N194        N  0.54935204  0.58939997  0.33216156    -0.33600
C195        C  0.55586076  0.59952570  0.32682538     0.02600
C196        C  0.56048386  0.60754166  0.33680849     0.08600
C197        C  0.55646630  0.60128550  0.34835313    -0.04500
H198        H  0.55706252  0.60086578  0.31634785     0.09300
H199        H  0.55801443  0.60463318  0.35833025     0.10500
Cu200      Cu  0.53934885  0.57523584  0.32186701     0.44200
Cu201      Cu  0.54050770  0.57605601  0.35695326     0.42000
Cu202      Cu  0.52300143  0.54946177  0.33814410     0.43900
N203        N  0.52910050  0.56098827  0.31195115    -0.33100
N204        N  0.52308821  0.55106846  0.31776750    -0.27400
C205        C  0.51854308  0.54278023  0.30844266    -0.03500
C206        C  0.52200241  0.54782704  0.29623580     0.08700
C207        C  0.52857377  0.55941330  0.29888996     0.02500
H208        H  0.51388559  0.53341314  0.31040769     0.10200
H209        H  0.53327088  0.56589352  0.29187530     0.09200
N210        N  0.52436345  0.55066878  0.35853698    -0.34600
N211        N  0.53048776  0.55998365  0.36531283    -0.26800
C212        C  0.52922698  0.55729702  0.37824795    -0.02000
C213        C  0.52200396  0.54575636  0.37971170     0.06600
C214        C  0.51909205  0.54193367  0.36694931     0.04700
H215        H  0.53349235  0.56321598  0.38599358     0.09800
H216        H  0.51337133  0.53349395  0.36390507     0.08600
N217        N  0.54947613  0.45780760  0.16093873    -0.25800
N218        N  0.54891319  0.45941369  0.17382777    -0.33600
C219        C  0.55592538  0.45006974  0.17985398     0.02600
C220        C  0.56120134  0.44188649  0.17046059     0.08600
C221        C  0.55683382  0.44695181  0.15847428    -0.04500
H222        H  0.55683708  0.44911734  0.19041299     0.09300
H223        H  0.55892029  0.44310349  0.14877892     0.10500
Cu224      Cu  0.53859629  0.47371316  0.18341081     0.44200
Cu225      Cu  0.54004255  0.47134812  0.14821909     0.42000
Cu226      Cu  0.52414392  0.49955675  0.16607902     0.43900
N227        N  0.52988008  0.48912434  0.19284447    -0.33100
N228        N  0.52465551  0.49915405  0.18653351    -0.27400
C229        C  0.52067682  0.50813066  0.19543193    -0.03500
C230        C  0.52359201  0.50340224  0.20793134     0.08700
C231        C  0.52941918  0.49130839  0.20583676     0.02500
H232        H  0.51615032  0.51742394  0.19296367     0.10200
H233        H  0.53362813  0.48482611  0.21313011     0.09200
N234        N  0.52416163  0.49692347  0.14574755    -0.34600
N235        N  0.52968906  0.48706406  0.13922590    -0.26800
C236        C  0.52723246  0.48874260  0.12625682    -0.02000
C237        C  0.51973277  0.50008271  0.12455744     0.06600
C238        C  0.51809069  0.50495704  0.13717748     0.04700
H239        H  0.53039195  0.48200573  0.11864851     0.09800
H240        H  0.51286627  0.51378487  0.13999620     0.08600
N241        N  0.60693178  0.71240819  0.30440140    -0.25800
N242        N  0.59481690  0.71516823  0.30820574    -0.33600
C243        C  0.59000095  0.70503943  0.31516100     0.02600
C244        C  0.59946557  0.69528555  0.31574233     0.08600
C245        C  0.61010766  0.70028026  0.30874437    -0.04500
H246        H  0.57994699  0.70438471  0.31861216     0.09300
H247        H  0.61925446  0.69530322  0.30655729     0.10500
Cu248      Cu  0.58417534  0.73094466  0.30113272     0.44200
Cu249      Cu  0.61744705  0.72515475  0.29230255     0.42000
Cu250      Cu  0.59640434  0.74692524  0.27220154     0.43900
N251        N  0.57255183  0.74218472  0.28885260    -0.33100
N252        N  0.57666284  0.74739161  0.27769744    -0.27400
C253        C  0.56627341  0.75273941  0.27142385    -0.03500
C254        C  0.55503783  0.75076135  0.27903432     0.08700
C255        C  0.55955936  0.74413143  0.29006426     0.02500
H256        H  0.56689773  0.75748633  0.26193726     0.10200
H257        H  0.55390817  0.74088247  0.29845821     0.09200
N258        N  0.61690668  0.74682640  0.27175937    -0.34600
N259        N  0.62441623  0.73947681  0.27941833    -0.26800
C260        C  0.63708088  0.74265009  0.27730696    -0.02000
C261        C  0.63776318  0.75235051  0.26768185     0.06600
C262        C  0.62466488  0.75465710  0.26446207     0.04700
H263        H  0.64514713  0.73822814  0.28267625     0.09800
H264        H  0.62084597  0.76150873  0.25720038     0.08600
N265        N  0.41624173  0.83329364  0.30650625    -0.25800
N266        N  0.42843402  0.83026764  0.30989250    -0.33600
C267        C  0.43344791  0.83996007  0.31736400     0.02600
C268        C  0.42405800  0.84969621  0.31870529     0.08600
C269        C  0.41325795  0.84518403  0.31162658    -0.04500
H270        H  0.44346055  0.84021745  0.32097489     0.09300
H271        H  0.40401300  0.85023425  0.31016723     0.10500
Cu272      Cu  0.43854493  0.81407367  0.30281667     0.44200
Cu273      Cu  0.40467062  0.82091697  0.29475412     0.42000
Cu274      Cu  0.42204538  0.79252953  0.28039307     0.43900
N275        N  0.44809628  0.79948183  0.29229834    -0.33100
N276        N  0.44215814  0.79166245  0.28379076    -0.27400
C277        C  0.45124300  0.78400683  0.27791283    -0.03500
C278        C  0.46355376  0.78720536  0.28295413     0.08700
C279        C  0.46107104  0.79701240  0.29212771     0.02500
H280        H  0.44903974  0.77695203  0.27025904     0.10200
H281        H  0.46813697  0.80207628  0.29826844     0.09200
N282        N  0.40201690  0.79599474  0.27838900    -0.34600
N283        N  0.39569274  0.80619804  0.28342993    -0.26800
C284        C  0.38286174  0.80524215  0.28019295    -0.02000
C285        C  0.38100753  0.79391671  0.27274282     0.06600
C286        C  0.39341518  0.78833957  0.27185818     0.04700
H287        H  0.37546511  0.81235437  0.28299598     0.09800
H288        H  0.39601994  0.77920837  0.26705577     0.08600
N289        N  0.42090356  0.20829834  0.21904762    -0.25800
N290        N  0.43344174  0.21146824  0.21793862    -0.33600
C291        C  0.44001086  0.20171443  0.21203719     0.02600
C292        C  0.43136853  0.19149226  0.20942613     0.08600
C293        C  0.41922313  0.19612776  0.21396592    -0.04500
H294        H  0.45040978  0.20222215  0.20994891     0.09300
H295        H  0.40993103  0.19095761  0.21400245     0.10500
Cu296      Cu  0.44193677  0.22795368  0.22580907     0.44200
Cu297      Cu  0.40743140  0.22117856  0.22793154     0.42000
Cu298      Cu  0.42330886  0.25062468  0.24379838     0.43900
N299        N  0.45043266  0.24347684  0.23545005    -0.33100
N300        N  0.44367841  0.25218026  0.24229690    -0.27400
C301        C  0.45208288  0.26133609  0.24698285    -0.03500
C302        C  0.46470594  0.25814942  0.24274936     0.08700
C303        C  0.46321614  0.24669787  0.23556758     0.02500
H304        H  0.44917082  0.26986844  0.25263636     0.10200
H305        H  0.47083429  0.24110726  0.23066880     0.09200
N306        N  0.40316297  0.24687095  0.24296012    -0.34600
N307        N  0.39739812  0.23654295  0.23743764    -0.26800
C308        C  0.38423493  0.23783521  0.23873637    -0.02000
C309        C  0.38161593  0.24954360  0.24526617     0.06600
C310        C  0.39386642  0.25492349  0.24780266     0.04700
H311        H  0.37709838  0.23091913  0.23491337     0.09800
H312        H  0.39592640  0.26406879  0.25284732     0.08600
N313        N  0.60164648  0.34197030  0.22341598    -0.25800
N314        N  0.59025430  0.34413787  0.22932053    -0.33600
C315        C  0.58508595  0.35544514  0.22492257     0.02600
C316        C  0.59351532  0.36081766  0.21570321     0.08600
C317        C  0.60395291  0.35196514  0.21494412    -0.04500
H318        H  0.57552091  0.35914089  0.22777071     0.09300
H319        H  0.61250935  0.35269024  0.20865693     0.10500
Cu320      Cu  0.58082115  0.33094436  0.24153738     0.44200
Cu321      Cu  0.61289051  0.32507241  0.22743537     0.42000
Cu322      Cu  0.59468417  0.29948724  0.24602727     0.43900
N323        N  0.57000351  0.31519735  0.24839932    -0.33100
N324        N  0.57490714  0.30324576  0.24954252    -0.27400
C325        C  0.56498308  0.29474911  0.25182101    -0.03500
C326        C  0.55322744  0.30173120  0.25201401     0.08700
C327        C  0.55689202  0.31469822  0.24994274     0.02500
H328        H  0.56614487  0.28418590  0.25227209     0.10200
H329        H  0.55047559  0.32310341  0.24883767     0.09200
N330        N  0.61478083  0.29905831  0.24223172    -0.34600
N331        N  0.62135908  0.30792707  0.23535023    -0.26800
C332        C  0.63423279  0.30471104  0.23553858    -0.02000
C333        C  0.63596319  0.29335828  0.24307432     0.06600
C334        C  0.62326809  0.29016868  0.24707911     0.04700
H335        H  0.64172249  0.31051546  0.23074003     0.09800
H336        H  0.62030926  0.28237687  0.25365543     0.08600
N337        N  0.46237417  0.08328540  0.16516127    -0.25800
N338        N  0.45922335  0.07962441  0.17721541    -0.33600
C339        C  0.45410393  0.08985156  0.18376939     0.02600
C340        C  0.45410816  0.10069004  0.17557914     0.08600
C341        C  0.45928280  0.09612396  0.16374550    -0.04500
H342        H  0.45134467  0.08954978  0.19404011     0.09300
H343        H  0.46155319  0.10192238  0.15512527     0.10500
Cu344      Cu  0.46508193  0.06227947  0.18566722     0.44200
Cu345      Cu  0.47258000  0.07065491  0.15246227     0.42000
Cu346      Cu  0.48928409  0.04294146  0.16973641     0.43900
N347        N  0.47621155  0.04859084  0.19545280    -0.33100
N348        N  0.48561200  0.04155242  0.18992087    -0.27400
C349        C  0.49137520  0.03412211  0.19929693    -0.03500
C350        C  0.48528887  0.03678607  0.21129411     0.08700
C351        C  0.47570957  0.04597328  0.20835075     0.02500
H352        H  0.49941467  0.02739100  0.19751777     0.10200
H353        H  0.46869121  0.05036101  0.21503469     0.09200
N354        N  0.48934283  0.04596070  0.14937650    -0.34600
N355        N  0.48347033  0.05579370  0.14316335    -0.26800
C356        C  0.48563209  0.05448663  0.13012776    -0.02000
C357        C  0.49313301  0.04327482  0.12799550     0.06600
C358        C  0.49526075  0.03816679  0.14044861     0.04700
H359        H  0.48187704  0.06114044  0.12273698     0.09800
H360        H  0.50090107  0.02949259  0.14289671     0.08600
N361        N  0.46545527  0.95578227  0.35491066    -0.25800
N362        N  0.46096368  0.95795620  0.34290833    -0.33600
C363        C  0.45332706  0.94785920  0.33913650     0.02600
C364        C  0.45305537  0.93873319  0.34914575     0.08600
C365        C  0.46094707  0.94397443  0.35899987    -0.04500
H366        H  0.44915967  0.94674856  0.32940938     0.09300
H367        H  0.46359140  0.93934798  0.36819641     0.10500
Cu368      Cu  0.46761971  0.97283318  0.33091216     0.44200
Cu369      Cu  0.47808545  0.96906235  0.36436547     0.42000
Cu370      Cu  0.49263523  0.99453910  0.34303393     0.43900
N371        N  0.47799391  0.98547507  0.31895560    -0.33100
N372        N  0.48745162  0.99334468  0.32316649    -0.27400
C373        C  0.49215661  0.00021115  0.31283653    -0.03500
C374        C  0.48523721  0.99648385  0.30163586     0.08700
C375        C  0.47640678  0.98706227  0.30594835     0.02500
H376        H  0.49970614  0.00768757  0.31352099     0.10200
H377        H  0.46929410  0.98172529  0.30009320     0.09200
N378        N  0.49468524  0.99403579  0.36350891    -0.34600
N379        N  0.48948516  0.98486705  0.37115405    -0.26800
C380        C  0.49230447  0.98775090  0.38378396    -0.02000
C381        C  0.49960975  0.99931571  0.38422747     0.06600
C382        C  0.50091785  0.00295560  0.37111439     0.04700
H383        H  0.48925819  0.98178107  0.39203699     0.09800
H384        H  0.50572681  0.01165899  0.36734302     0.08600
N385        N  0.68678345  0.30756298  0.59873822    -0.25800
N386        N  0.69108617  0.31251572  0.58753306    -0.33600
C387        C  0.68151338  0.31944593  0.58174636     0.02600
C388        C  0.67040491  0.31890378  0.58954061     0.08600
C389        C  0.67412166  0.31134836  0.60037291    -0.04500
H390        H  0.68253804  0.32421244  0.57229642     0.09300
H391        H  0.66794548  0.30839300  0.60852086     0.10500
Cu392      Cu  0.70860646  0.30773030  0.57884792     0.44200
Cu393      Cu  0.69901974  0.29541943  0.61016665     0.42000
Cu394      Cu  0.72715872  0.28133684  0.59117786     0.43900
N395        N  0.72112380  0.29708629  0.56720738    -0.33100
N396        N  0.72766004  0.28670963  0.57138393    -0.27400
C397        C  0.73371577  0.28107651  0.56100352    -0.03500
C398        C  0.73071454  0.28829980  0.54974834     0.08700
C399        C  0.72275436  0.29841192  0.55419978     0.02500
H400        H  0.73958755  0.27224078  0.56160677     0.10200
H401        H  0.71837903  0.30621989  0.54848573     0.09200
N402        N  0.72495097  0.28018176  0.61157885    -0.34600
N403        N  0.71498817  0.28511473  0.61839980    -0.26800
C404        C  0.71734372  0.28319363  0.63131741    -0.02000
C405        C  0.72936877  0.27682201  0.63276666     0.06600
C406        C  0.73381350  0.27505749  0.61997521     0.04700
H407        H  0.71097739  0.28667577  0.63910107     0.09800
H408        H  0.74289718  0.27044402  0.61691088     0.08600
N409        N  0.81996875  0.31459210  0.41497099    -0.25800
N410        N  0.81671447  0.31662265  0.42738330    -0.33600
C411        C  0.82621101  0.32357058  0.43338479     0.02600
C412        C  0.83611870  0.32628862  0.42441225     0.08600
C413        C  0.83176850  0.32036556  0.41276764    -0.04500
H414        H  0.82612899  0.32584099  0.44377237     0.09300
H415        H  0.83683358  0.32009714  0.40342559     0.10500
Cu416      Cu  0.80018463  0.30898090  0.43633736     0.44200
Cu417      Cu  0.80798217  0.30322157  0.40237171     0.42000
Cu418      Cu  0.78082339  0.28539585  0.41945437     0.43900
N419        N  0.78491709  0.29897549  0.44518106    -0.33100
N420        N  0.77800505  0.28971449  0.43923470    -0.27400
C421        C  0.76925539  0.28469052  0.44785447    -0.03500
C422        C  0.77071803  0.29127545  0.45972671     0.08700
C423        C  0.78073346  0.30024078  0.45763440     0.02500
H424        H  0.76219846  0.27704616  0.44557692     0.10200
H425        H  0.78485552  0.30704397  0.46471366     0.09200
N426        N  0.78415217  0.28503845  0.39927101    -0.34600
N427        N  0.79361897  0.29146410  0.39301102    -0.26800
C428        C  0.79212589  0.28943052  0.37996545    -0.02000
C429        C  0.78124855  0.28134626  0.37791705     0.06600
C430        C  0.77650412  0.27881305  0.39043528     0.04700
H431        H  0.79852346  0.29353732  0.37252049     0.09800
H432        H  0.76782517  0.27319698  0.39298181     0.08600
N433        N  0.07543367  0.17430904  0.46175677    -0.25800
N434        N  0.07392728  0.18717939  0.46082091    -0.33600
C435        C  0.08356224  0.19215493  0.45329194     0.02600
C436        C  0.09167508  0.18199070  0.44932781     0.08600
C437        C  0.08627187  0.17076944  0.45494156    -0.04500
H438        H  0.08494614  0.20253442  0.45140707     0.09300
H439        H  0.09002110  0.16083987  0.45428196     0.10500
Cu440      Cu  0.05976385  0.19781599  0.47081890     0.44200
Cu441      Cu  0.06250492  0.16268068  0.47258258     0.42000
Cu442      Cu  0.03577957  0.18069594  0.48985650     0.43900
N443        N  0.04556749  0.20738024  0.48181490    -0.33100
N444        N  0.03650224  0.20120500  0.48878818    -0.27400
C445        C  0.02835742  0.21022597  0.49413162    -0.03500
C446        C  0.03260836  0.22268068  0.49038816     0.08700
C447        C  0.04355236  0.22041376  0.48259156     0.02500
H448        H  0.01989098  0.20787746  0.50014345     0.10200
H449        H  0.04931505  0.22767839  0.47736562     0.09200
N450        N  0.03751079  0.16023063  0.48889343    -0.34600
N451        N  0.04725845  0.15383929  0.48304490    -0.26800
C452        C  0.04550746  0.14082560  0.48475356    -0.02000
C453        C  0.03406451  0.13889814  0.49187192     0.06600
C454        C  0.02923931  0.15139730  0.49429811     0.04700
H455        H  0.05205339  0.13331444  0.48101141     0.09800
H456        H  0.02052376  0.15390422  0.49987851     0.08600
N457        N  0.94424055  0.36163214  0.46582244    -0.25800
N458        N  0.94636583  0.34898327  0.46376766    -0.33600
C459        C  0.93588808  0.34364344  0.45778792     0.02600
C460        C  0.92634754  0.35321936  0.45612695     0.08600
C461        C  0.93209129  0.36462203  0.46122896    -0.04500
H462        H  0.93521356  0.33335639  0.45518501     0.09300
H463        H  0.92755490  0.37419654  0.46211072     0.10500
Cu464      Cu  0.96238820  0.33862700  0.47074087     0.44200
Cu465      Cu  0.95829027  0.37328323  0.47564818     0.42000
Cu466      Cu  0.98695950  0.35450132  0.48951181     0.43900
N467        N  0.97767345  0.32846829  0.47945866    -0.33100
N468        N  0.98703193  0.33422257  0.48637408    -0.27400
C469        C  0.99552194  0.32494442  0.49059980    -0.03500
C470        C  0.99122216  0.31269714  0.48614876     0.08700
C471        C  0.97979955  0.31544201  0.47918310     0.02500
H472        H  0.00423675  0.32703153  0.49632586     0.10200
H473        H  0.97328658  0.30851339  0.47442024     0.09200
N474        N  0.98431732  0.37481787  0.49088278    -0.34600
N475        N  0.97437541  0.38155835  0.48579799    -0.26800
C476        C  0.97627835  0.39444059  0.48837571    -0.02000
C477        C  0.98784742  0.39588418  0.49550155     0.06600
C478        C  0.99262852  0.38321760  0.49689975     0.04700
H479        H  0.96960199  0.40218175  0.48545398     0.09800
H480        H  0.00163145  0.38030359  0.50176182     0.08600
N481        N  0.44052977  0.17328118  0.54833978    -0.25800
N482        N  0.44215648  0.18616061  0.54908490    -0.33600
C483        C  0.43268959  0.19146783  0.55654191     0.02600
C484        C  0.42441621  0.18160464  0.56071409     0.08600
C485        C  0.42955041  0.17011450  0.55523656    -0.04500
H486        H  0.43163964  0.20189523  0.55840443     0.09300
H487        H  0.42562828  0.16027196  0.55622209     0.10500
Cu488      Cu  0.45633762  0.19676201  0.53949233     0.44200
Cu489      Cu  0.45419878  0.16149883  0.53797071     0.42000
Cu490      Cu  0.48291874  0.18120035  0.52485841     0.43900
N491        N  0.47100777  0.20729577  0.53058062    -0.33100
N492        N  0.48156688  0.20166847  0.52556671    -0.27400
C493        C  0.48991569  0.21117204  0.52151220    -0.03500
C494        C  0.48406899  0.22329451  0.52394126     0.08700
C495        C  0.47210964  0.22040952  0.52969437     0.02500
H496        H  0.49949075  0.20941916  0.51721058     0.10200
H497        H  0.46498498  0.22733784  0.53350217     0.09200
N498        N  0.48092032  0.16076906  0.52383736    -0.34600
N499        N  0.47073611  0.15369893  0.52796828    -0.26800
C500        C  0.47311529  0.14090901  0.52516628    -0.02000
C501        C  0.48538564  0.13989894  0.51918688     0.06600
C502        C  0.48996669  0.15268860  0.51853285     0.04700
H503        H  0.46656873  0.13288651  0.52763275     0.09800
H504        H  0.49923067  0.15593297  0.51440545     0.08600
N505        N  0.56562166  0.36302093  0.54947708    -0.25800
N506        N  0.56189026  0.35105387  0.55283873    -0.33600
C507        C  0.57147472  0.34518788  0.55972230     0.02600
C508        C  0.58193355  0.35381632  0.56088367     0.08600
C509        C  0.57786319  0.36509169  0.55423277    -0.04500
H510        H  0.57115376  0.33502669  0.56284348     0.09300
H511        H  0.58348898  0.37398201  0.55264668     0.10500
Cu512      Cu  0.54512858  0.34217708  0.54601400     0.44200
Cu513      Cu  0.55374029  0.37484820  0.53745317     0.42000
Cu514      Cu  0.52599901  0.35717855  0.52084453     0.43900
N515        N  0.53120731  0.33211921  0.53545680    -0.33100
N516        N  0.52424310  0.33717975  0.52574526    -0.27400
C517        C  0.51655787  0.32756767  0.52065639    -0.03500
C518        C  0.51883313  0.31601080  0.52766726     0.08700
C519        C  0.52825783  0.31936164  0.53686802     0.02500
H520        H  0.50967950  0.32894236  0.51266818     0.10200
H521        H  0.53289346  0.31294838  0.54396180     0.09200
N522        N  0.52959540  0.37752765  0.51965606    -0.34600
N523        N  0.53953731  0.38376519  0.52538856    -0.26800
C524        C  0.53857073  0.39673090  0.52273239    -0.02000
C525        C  0.52744945  0.39885232  0.51511798     0.06600
C526        C  0.52203086  0.38643544  0.51338671     0.04700
H527        H  0.54524310  0.40415123  0.52646506     0.09800
H528        H  0.51315537  0.38404839  0.50800704     0.08600
N529        N  0.32208598  0.23106705  0.59860400    -0.25800
N530        N  0.32216212  0.23257886  0.58570007    -0.33600
C531        C  0.33321906  0.22744896  0.58067836     0.02600
C532        C  0.34070175  0.22238592  0.59081792     0.08600
C533        C  0.33327837  0.22475443  0.60212129    -0.04500
H534        H  0.33552990  0.22726709  0.57029482     0.09300
H535        H  0.33592908  0.22231615  0.61212336     0.10500
Cu536      Cu  0.30737518  0.24128017  0.57498468     0.44200
Cu537      Cu  0.30649476  0.23851277  0.61005340     0.42000
Cu538      Cu  0.27946343  0.25462932  0.59093283     0.43900
N539        N  0.29163493  0.24887278  0.56479786    -0.33100
N540        N  0.28100020  0.25357008  0.57058811    -0.27400
C541        C  0.27216791  0.25685461  0.56127713    -0.03500
C542        C  0.27764161  0.25416406  0.54906007     0.08700
C543        C  0.28998385  0.24911913  0.55170432     0.02500
H544        H  0.26246860  0.26076390  0.56325646     0.10200
H545        H  0.29703477  0.24536754  0.54466803     0.09200
N546        N  0.28099262  0.25457557  0.61133151    -0.34600
N547        N  0.29033089  0.24862364  0.61821161    -0.26800
C548        C  0.28814982  0.25091309  0.63110166    -0.02000
C549        C  0.27705597  0.25877858  0.63239157     0.06600
C550        C  0.27280668  0.26086738  0.61963326     0.04700
H551        H  0.29446750  0.24750207  0.63894401     0.09800
H552        H  0.26437932  0.26658473  0.61656525     0.08600
N553        N  0.19585543  0.22525627  0.40872386    -0.25800
N554        N  0.19926171  0.22192702  0.42079839    -0.33600
C555        C  0.18950968  0.21518205  0.42651635     0.02600
C556        C  0.17914585  0.21420217  0.41779924     0.08600
C557        C  0.18356430  0.22058939  0.40646395    -0.04500
H558        H  0.18985480  0.21164724  0.43653688     0.09300
H559        H  0.17803449  0.22227571  0.39754160     0.10500
Cu560      Cu  0.21565877  0.22855114  0.43039358     0.44200
Cu561      Cu  0.20853602  0.23695335  0.39715665     0.42000
Cu562      Cu  0.23674339  0.25177972  0.41617726     0.43900
N563        N  0.22898418  0.23896856  0.44131084    -0.33100
N564        N  0.23686796  0.24797429  0.43630333    -0.27400
C565        C  0.24396984  0.25334859  0.44615400    -0.03500
C566        C  0.24029645  0.24730463  0.45786151     0.08700
C567        C  0.23072343  0.23831353  0.45434877     0.02500
H568        H  0.25138073  0.26088599  0.44486285     0.10200
H569        H  0.22524511  0.23185768  0.46079847     0.09200
N570        N  0.23403276  0.25317019  0.39588522    -0.34600
N571        N  0.22401282  0.24827109  0.38908530    -0.26800
C572        C  0.22579652  0.25125748  0.37625991    -0.02000
C573        C  0.23752064  0.25817958  0.37491695     0.06600
C574        C  0.24241368  0.25918209  0.38757644     0.04700
H575        H  0.21924122  0.24826744  0.36843132     0.09800
H576        H  0.25143337  0.26397824  0.39057342     0.08600
N577        N  0.72458925  0.92421871  0.68666458    -0.25800
N578        N  0.72016225  0.93582147  0.69046105    -0.33600
C579        C  0.71245597  0.94091487  0.68105861     0.02600
C580        C  0.71196779  0.93222421  0.67061694     0.08600
C581        C  0.71986158  0.92170014  0.67448021    -0.04500
H582        H  0.70826647  0.95068588  0.68143178     0.09300
H583        H  0.72222123  0.91304199  0.66876316     0.10500
Cu584      Cu  0.72656657  0.94547878  0.70704773     0.44200
Cu585      Cu  0.73721171  0.91332167  0.69885264     0.42000
Cu586      Cu  0.75062686  0.93147808  0.72816187     0.43900
N587        N  0.73609941  0.95617800  0.72134757    -0.33100
N588        N  0.74513364  0.95132061  0.72930771    -0.27400
C589        C  0.74959927  0.96113589  0.73710819    -0.03500
C590        C  0.74313599  0.97270008  0.73364727     0.08700
C591        C  0.73464403  0.96907821  0.72366651     0.02500
H592        H  0.75714814  0.96000958  0.74451465     0.10200
H593        H  0.72782159  0.97534828  0.71845490     0.09200
N594        N  0.75278466  0.91124863  0.72462686    -0.34600
N595        N  0.74798271  0.90482820  0.71432406    -0.26800
C596        C  0.75031232  0.89187102  0.71590755    -0.02000
C597        C  0.75688755  0.88994710  0.72772424     0.06600
C598        C  0.75832349  0.90250319  0.73290780     0.04700
H599        H  0.74719295  0.88436662  0.70903395     0.09800
H600        H  0.76250892  0.90505837  0.74235290     0.08600
N601        N  0.71197664  0.11149079  0.81783831    -0.25800
N602        N  0.70869796  0.09921051  0.81506545    -0.33600
C603        C  0.70166320  0.09419650  0.82505809     0.02600
C604        C  0.70047329  0.10368371  0.83473202     0.08600
C605        C  0.70718262  0.11455069  0.82984085    -0.04500
H606        H  0.69837855  0.08408454  0.82559376     0.09300
H607        H  0.70872946  0.12386406  0.83475841     0.10500
Cu608      Cu  0.71560669  0.08885764  0.79898091     0.44200
Cu609      Cu  0.72348534  0.12293520  0.80517770     0.42000
Cu610      Cu  0.73920334  0.10449348  0.77819836     0.43900
N611        N  0.72619540  0.07884367  0.78478918    -0.33100
N612        N  0.73534652  0.08440750  0.77741679    -0.27400
C613        C  0.74094089  0.07511638  0.76977771    -0.03500
C614        C  0.73488680  0.06318050  0.77243102     0.08700
C615        C  0.72559526  0.06594271  0.78198508     0.02500
H616        H  0.74864465  0.07695238  0.76266364     0.10200
H617        H  0.71901728  0.05903701  0.78672042     0.09200
N618        N  0.74037962  0.12479994  0.78056832    -0.34600
N619        N  0.73474488  0.13149893  0.79021382    -0.26800
C620        C  0.73713421  0.14441207  0.78838932    -0.02000
C621        C  0.74462320  0.14595152  0.77705428     0.06600
C622        C  0.74646890  0.13325800  0.77241055     0.04700
H623        H  0.73364001  0.15209830  0.79486133     0.09800
H624        H  0.75151227  0.13035536  0.76350287     0.08600
N625        N  0.67275728  0.97990599  0.56690331    -0.25800
N626        N  0.68560706  0.97990541  0.56498530    -0.33600
C627        C  0.69173387  0.97455120  0.57531998     0.02600
C628        C  0.68242074  0.97092291  0.58449466     0.08600
C629        C  0.67038414  0.97435812  0.57878967    -0.04500
H630        H  0.70228429  0.97331836  0.57600049     0.09300
H631        H  0.66071366  0.97319162  0.58308202     0.10500
Cu632      Cu  0.69478518  0.98721166  0.54871375     0.44200
Cu633      Cu  0.66013767  0.98823803  0.55259998     0.42000
Cu634      Cu  0.67794871  0.00197579  0.52272031     0.43900
N635        N  0.70433413  0.99399317  0.53243111    -0.33100
N636        N  0.69833456  0.99940744  0.52229814    -0.27400
C637        C  0.70747531  0.00237107  0.51310438    -0.03500
C638        C  0.71974988  0.99872713  0.51795467     0.08700
C639        C  0.71729194  0.99341836  0.53017973     0.02500
H640        H  0.70538431  0.00691782  0.50372302     0.10200
H641        H  0.72437642  0.98918829  0.53689190     0.09200
N642        N  0.65766218  0.00281921  0.52613468    -0.34600
N643        N  0.65127941  0.99800642  0.53645956    -0.26800
C644        C  0.63831832  0.00056995  0.53494130    -0.02000
C645        C  0.63641138  0.00727204  0.52315381     0.06600
C646        C  0.64895606  0.00848914  0.51793045     0.04700
H647        H  0.63081045  0.99763935  0.54189117     0.09800
H648        H  0.65167132  0.01338745  0.50889008     0.08600
N649        N  0.86190220  0.97361034  0.43637488    -0.25800
N650        N  0.84952595  0.97025128  0.43851546    -0.33600
C651        C  0.84473752  0.96397046  0.42795491     0.02600
C652        C  0.85450719  0.96321950  0.41852351     0.08600
C653        C  0.86530304  0.96952365  0.42417947    -0.04500
H654        H  0.83462876  0.96075618  0.42700828     0.09300
H655        H  0.87483925  0.97113416  0.41973742     0.10500
Cu656      Cu  0.83890916  0.97548281  0.45490216     0.44200
Cu657      Cu  0.87276179  0.98407662  0.45049977     0.42000
Cu658      Cu  0.85344558  0.99535772  0.47961966     0.43900
N659        N  0.82824256  0.98363950  0.47000771    -0.33100
N660        N  0.83338459  0.99129853  0.47915057    -0.27400
C661        C  0.82364022  0.99561423  0.48705439    -0.03500
C662        C  0.81183753  0.99029748  0.48262259     0.08700
C663        C  0.81519394  0.98279961  0.47178354     0.02500
H664        H  0.82505934  0.00207354  0.49539348     0.10200
H665        H  0.80860742  0.97742908  0.46537495     0.09200
N666        N  0.87361492  0.99800416  0.47713499    -0.34600
N667        N  0.88053264  0.99421672  0.46676034    -0.26800
C668        C  0.89317661  0.99784424  0.46855437    -0.02000
C669        C  0.89433741  0.00419651  0.48063518     0.06600
C670        C  0.88167259  0.00401449  0.48574878     0.04700
H671        H  0.90089022  0.99611169  0.46143873     0.09800
H672        H  0.87847859  0.00777331  0.49517249     0.08600
N673        N  0.80498974  0.11692726  0.19297884    -0.25800
N674        N  0.80874592  0.10510803  0.19686594    -0.33600
C675        C  0.81607042  0.09949666  0.18742768     0.02600
C676        C  0.81703518  0.10807433  0.17692894     0.08600
C677        C  0.80986464  0.11908351  0.18081048    -0.04500
H678        H  0.81958198  0.08946688  0.18781357     0.09300
H679        H  0.80795025  0.12782118  0.17507094     0.10500
Cu680      Cu  0.80206123  0.09565065  0.21353472     0.44200
Cu681      Cu  0.79238770  0.12879395  0.20421278     0.42000
Cu682      Cu  0.77702401  0.11090080  0.23184828     0.43900
N683        N  0.79161284  0.08586473  0.22793150    -0.33100
N684        N  0.78192950  0.09139407  0.23457131    -0.27400
C685        C  0.77627715  0.08231820  0.24238400    -0.03500
C686        C  0.78278636  0.07047374  0.24053887     0.08700
C687        C  0.79245281  0.07313684  0.23130281     0.02500
H688        H  0.76802421  0.08420585  0.24883453     0.10200
H689        H  0.79924530  0.06621709  0.22691729     0.09200
N690        N  0.77464416  0.13072689  0.22816691    -0.34600
N691        N  0.78003090  0.13736543  0.21835388    -0.26800
C692        C  0.77687464  0.15017832  0.21974535    -0.02000
C693        C  0.76919457  0.15163403  0.23099887     0.06600
C694        C  0.76803786  0.13904397  0.23599678     0.04700
H695        H  0.78014330  0.15786020  0.21315922     0.09800
H696        H  0.76330208  0.13613357  0.24506720     0.08600
N697        N  0.80558203  0.93006316  0.31552526    -0.25800
N698        N  0.80810463  0.94224936  0.31184201    -0.33600
C699        C  0.81670786  0.94776569  0.32015877     0.02600
C700        C  0.81975254  0.93877331  0.32986044     0.08600
C701        C  0.81260828  0.92752672  0.32653146    -0.04500
H702        H  0.81993765  0.95788123  0.31950823     0.09300
H703        H  0.81193650  0.91851301  0.33212854     0.10500
Cu704      Cu  0.79785069  0.95212333  0.29761777     0.44200
Cu705      Cu  0.79172728  0.91866118  0.30522409     0.42000
Cu706      Cu  0.77200150  0.93757259  0.28002078     0.43900
N707        N  0.78496144  0.96299001  0.28660850    -0.33100
N708        N  0.77505350  0.95793390  0.27992536    -0.27400
C709        C  0.76857849  0.96784726  0.27388063    -0.03500
C710        C  0.77474631  0.97967779  0.27714202     0.08700
C711        C  0.78510760  0.97606738  0.28517306     0.02500
H712        H  0.76007314  0.96653417  0.26762622     0.10200
H713        H  0.79253568  0.98240969  0.28939792     0.09200
N714        N  0.77227120  0.91707211  0.28221057    -0.34600
N715        N  0.77887842  0.91039057  0.29123833    -0.26800
C716        C  0.77677803  0.89742946  0.28928063    -0.02000
C717        C  0.76856900  0.89575203  0.27843367     0.06600
C718        C  0.76598705  0.90851387  0.27428193     0.04700
H719        H  0.78107326  0.88982494  0.29531610     0.09800
H720        H  0.76033537  0.91147591  0.26579039     0.08600
N721        N  0.66607228  0.06450408  0.94287499    -0.25800
N722        N  0.67889636  0.06581433  0.94455081    -0.33600
C723        C  0.68418103  0.07176488  0.93406159     0.02600
C724        C  0.67428825  0.07439253  0.92516914     0.08600
C725        C  0.66283383  0.06974936  0.93108649    -0.04500
H726        H  0.69461300  0.07343124  0.93272171     0.09300
H727        H  0.65309737  0.06945639  0.92680341     0.10500
Cu728      Cu  0.68938797  0.05766533  0.95971461     0.44200
Cu729      Cu  0.65472484  0.05417363  0.95666024     0.42000
Cu730      Cu  0.67481260  0.03595837  0.98219852     0.43900
N731        N  0.70037600  0.04699604  0.97283265    -0.33100
N732        N  0.69529043  0.03856781  0.98127210    -0.27400
C733        C  0.70523767  0.03309672  0.98820134    -0.03500
C734        C  0.71713934  0.03835411  0.98374424     0.08700
C735        C  0.71350569  0.04717956  0.97404643     0.02500
H736        H  0.70389257  0.02582242  0.99583187     0.10200
H737        H  0.71987176  0.05357796  0.96842098     0.09200
N738        N  0.65416331  0.03657170  0.98115229    -0.34600
N739        N  0.64709943  0.04318667  0.97239646    -0.26800
C740        C  0.63421817  0.04157744  0.97520063    -0.02000
C741        C  0.63306101  0.03349984  0.98611462     0.06600
C742        C  0.64590332  0.03051576  0.98957727     0.04700
H743        H  0.62625614  0.04579159  0.96954427     0.09800
H744        H  0.64904214  0.02449531  0.99775744     0.08600
N745        N  0.85364029  0.06387629  0.07051406    -0.25800
N746        N  0.84129897  0.06648751  0.06738284    -0.33600
C747        C  0.83511814  0.07172044  0.07780437     0.02600
C748        C  0.84389365  0.07248354  0.08818372     0.08600
C749        C  0.85562882  0.06747929  0.08315504    -0.04500
H750        H  0.82491298  0.07471920  0.07776065     0.09300
H751        H  0.86480424  0.06618747  0.08838018     0.10500
Cu752      Cu  0.83263672  0.06171867  0.04966466     0.44200
Cu753      Cu  0.86649617  0.05475845  0.05721587     0.42000
Cu754      Cu  0.84978953  0.04031102  0.02805261     0.43900
N755        N  0.82362608  0.05263893  0.03390991    -0.33100
N756        N  0.82963496  0.04401632  0.02626088    -0.27400
C757        C  0.82070481  0.03876948  0.01793455    -0.03500
C758        C  0.80858699  0.04456128  0.02043433     0.08700
C759        C  0.81084920  0.05331292  0.03058698     0.02500
H760        H  0.82286129  0.03136307  0.01060263     0.10200
H761        H  0.80362984  0.05937550  0.03553110     0.09200
N762        N  0.87001806  0.03928714  0.03176132    -0.34600
N763        N  0.87605790  0.04453979  0.04205394    -0.26800
C764        C  0.88904173  0.04189907  0.04119373    -0.02000
C765        C  0.89133670  0.03457852  0.02987393     0.06600
C766        C  0.87900109  0.03319328  0.02416543     0.04700
H767        H  0.89622392  0.04483322  0.04847828     0.09800
H768        H  0.87668053  0.02821486  0.01505109     0.08600
C769        C  0.53143443  0.00376045  0.04500125     0.04700
C770        C  0.52457743  0.99325008  0.03916001    -0.11500
C771        C  0.52980858  0.98667694  0.02817552     0.02200
C772        C  0.54174979  0.99099230  0.02273613    -0.10000
C773        C  0.54864788  0.00156479  0.02832683     0.04700
C774        C  0.54356271  0.00778066  0.03961683    -0.09400
H775        H  0.51536976  0.98993082  0.04341260     0.10300
H776        H  0.54573113  0.98605354  0.01415609     0.07800
H777        H  0.54887512  0.01591899  0.04401894     0.07600
C778        C  0.53416006  0.06030041  0.48396063     0.04700
C779        C  0.52917604  0.05449060  0.47238688    -0.11500
C780        C  0.53540241  0.04355282  0.46660848     0.02200
C781        C  0.54684937  0.03848914  0.47251158    -0.10000
C782        C  0.55198318  0.04398747  0.48416270     0.04700
C783        C  0.54548327  0.05486700  0.48983631    -0.09400
H784        H  0.52026313  0.05834436  0.46799535     0.10300
H785        H  0.55194340  0.03038861  0.46781908     0.07800
H786        H  0.54929573  0.05919639  0.49879643     0.07600
N787        N  0.68557220  0.73515457  0.91183473    -0.25800
N788        N  0.68758968  0.73483510  0.92466800    -0.33600
C789        C  0.67701745  0.72978788  0.93069423     0.02600
C790        C  0.66755463  0.72684994  0.92136785     0.08600
C791        C  0.67338979  0.73030922  0.90941379    -0.04500
H792        H  0.67644420  0.72822898  0.94119090     0.09300
H793        H  0.66907530  0.72954129  0.89972702     0.10500
Cu794      Cu  0.70414428  0.74152735  0.93425321     0.44200
Cu795      Cu  0.70010677  0.74222544  0.89885272     0.42000
Cu796      Cu  0.73085754  0.75314028  0.91618988     0.43900
N797        N  0.72070721  0.74891913  0.94330936    -0.33100
N798        N  0.73101357  0.75310450  0.93662692    -0.27400
C799        C  0.74036997  0.75704182  0.94517401    -0.03500
C800        C  0.73557755  0.75534684  0.95786569     0.08700
C801        C  0.72308219  0.75014563  0.95624122     0.02500
H802        H  0.74988091  0.76091456  0.94235756     0.10200
H803        H  0.71632334  0.74712853  0.96389253     0.09200
N804        N  0.72790605  0.75341060  0.89594764    -0.34600
N805        N  0.71712653  0.74968013  0.88960952    -0.26800
C806        C  0.71896268  0.75180853  0.87661870    -0.02000
C807        C  0.73140964  0.75720649  0.87473188     0.06600
C808        C  0.73673652  0.75797703  0.88723443     0.04700
H809        H  0.71162128  0.74992710  0.86914889     0.09800
H810        H  0.74637527  0.76163086  0.88989105     0.08600
N811        N  0.81634815  0.72419188  0.09630242    -0.25800
N812        N  0.81192203  0.72017797  0.08477171    -0.33600
C813        C  0.82123603  0.71317753  0.07862571     0.02600
C814        C  0.83232452  0.71282753  0.08648658     0.08600
C815        C  0.82881923  0.71980298  0.09776441    -0.04500
H816        H  0.82019375  0.70929842  0.06877628     0.09300
H817        H  0.83512761  0.72225266  0.10597471     0.10500
Cu818      Cu  0.79516373  0.72716656  0.07601297     0.44200
Cu819      Cu  0.80502365  0.73672394  0.10812699     0.42000
Cu820      Cu  0.77770913  0.75366297  0.09019997     0.43900
N821        N  0.78304331  0.73913801  0.06521968    -0.33100
N822        N  0.77667922  0.74932760  0.07013031    -0.27400
C823        C  0.77042759  0.75556012  0.06021174    -0.03500
C824        C  0.77306129  0.74887030  0.04854423     0.08700
C825        C  0.78116445  0.73858675  0.05218936     0.02500
H826        H  0.76434256  0.76419720  0.06142622     0.10200
H827        H  0.78569831  0.73137337  0.04581225     0.09200
N828        N  0.78110339  0.75481015  0.11046875    -0.34600
N829        N  0.79074173  0.74879526  0.11686135    -0.26800
C830        C  0.78962626  0.75152844  0.12979428    -0.02000
C831        C  0.77883301  0.75967554  0.13169224     0.06600
C832        C  0.77370650  0.76151238  0.11918554     0.04700
H833        H  0.79627970  0.74790242  0.13725757     0.09800
H834        H  0.76502307  0.76709151  0.11659818     0.08600
N835        N  0.56247734  0.68248042  0.95955676    -0.25800
N836        N  0.55989059  0.69494229  0.95699087    -0.33600
C837        C  0.57000064  0.70027670  0.95041454     0.02600
C838        C  0.57956692  0.69079578  0.94877152     0.08600
C839        C  0.57453808  0.67958824  0.95476759    -0.04500
H840        H  0.57064931  0.71053867  0.94767501     0.09300
H841        H  0.57935577  0.67016014  0.95576952     0.10500
Cu842      Cu  0.54384852  0.70491012  0.96422625     0.44200
Cu843      Cu  0.54918802  0.67085188  0.97004841     0.42000
Cu844      Cu  0.52165798  0.68919661  0.98619091     0.43900
N845        N  0.52996643  0.71505717  0.97487978    -0.33100
N846        N  0.52186260  0.70958002  0.98340860    -0.27400
C847        C  0.51473233  0.71917145  0.98921790    -0.03500
C848        C  0.51863628  0.73127967  0.98406382     0.08700
C849        C  0.52824762  0.72811409  0.97491983     0.02500
H850        H  0.50743887  0.71742389  0.99676275     0.10200
H851        H  0.53359396  0.73472994  0.96854489     0.09200
N852        N  0.52417359  0.66875448  0.98656076    -0.34600
N853        N  0.53389400  0.66225836  0.98078177    -0.26800
C854        C  0.53239062  0.64930932  0.98314406    -0.02000
C855        C  0.52125122  0.64748353  0.99082276     0.06600
C856        C  0.51631352  0.66006229  0.99275309     0.04700
H857        H  0.53912693  0.64180676  0.97974790     0.09800
H858        H  0.50756179  0.66273924  0.99818722     0.08600
N859        N  0.44598306  0.87444113  0.95378329    -0.25800
N860        N  0.44996436  0.86278728  0.94962708    -0.33600
C861        C  0.44089432  0.85767577  0.94152964     0.02600
C862        C  0.43048786  0.86634143  0.94061943     0.08600
C863        C  0.43401999  0.87691460  0.94856510    -0.04500
H864        H  0.44111317  0.84767363  0.93788781     0.09300
H865        H  0.42798000  0.88529977  0.95108280     0.10500
Cu866      Cu  0.46495715  0.85216558  0.95815980     0.44200
Cu867      Cu  0.45669416  0.88520882  0.96763939     0.42000
Cu868      Cu  0.47992440  0.86503898  0.98687998     0.43900
N869        N  0.47539047  0.84062252  0.97115694    -0.33100
N870        N  0.48059128  0.84518225  0.98214007    -0.27400
C871        C  0.48594291  0.83509715  0.98884670    -0.03500
C872        C  0.48394003  0.82358551  0.98171231     0.08700
C873        C  0.47723803  0.82757081  0.97052601     0.02500
H874        H  0.49073180  0.83609817  0.99828354     0.10200
H875        H  0.47399363  0.82150859  0.96241258     0.09200
N876        N  0.47891702  0.88543711  0.98761538    -0.34600
N877        N  0.47069423  0.89276297  0.98068096    -0.26800
C878        C  0.47343768  0.90553554  0.98295648    -0.02000
C879        C  0.48386204  0.90629237  0.99175218     0.06600
C880        C  0.48703079  0.89333289  0.99447035     0.04700
H881        H  0.46825753  0.91365194  0.97846131     0.09800
H882        H  0.49498284  0.88984421  0.00060548     0.08600
N883        N  0.93688441  0.67515611  0.04006707    -0.25800
N884        N  0.93818817  0.68808583  0.04052130    -0.33600
C885        C  0.92814364  0.69334485  0.04727254     0.02600
C886        C  0.91990728  0.68333176  0.05126183     0.08600
C887        C  0.92565740  0.67187814  0.04643225    -0.04500
H888        H  0.92676294  0.70377861  0.04886035     0.09300
H889        H  0.92202027  0.66194407  0.04757379     0.10500
Cu890      Cu  0.95302587  0.69844751  0.03154759     0.44200
Cu891      Cu  0.95114266  0.66315360  0.03096392     0.42000
Cu892      Cu  0.97848044  0.68150644  0.01477831     0.43900
N893        N  0.96800047  0.70805528  0.02198805    -0.33100
N894        N  0.97759768  0.70200037  0.01568506    -0.27400
C895        C  0.98600520  0.71113875  0.01098848    -0.03500
C896        C  0.98136572  0.72353580  0.01452126     0.08700
C897        C  0.96994256  0.72108616  0.02151844     0.02500
H898        H  0.99486042  0.70889082  0.00553372     0.10200
H899        H  0.96372874  0.72819068  0.02642518     0.09200
N900        N  0.97714365  0.66102783  0.01595069    -0.34600
N901        N  0.96754176  0.65436209  0.02174407    -0.26800
C902        C  0.97010652  0.64137423  0.02053567    -0.02000
C903        C  0.98179695  0.63975992  0.01357689     0.06600
C904        C  0.98592459  0.65248785  0.01091518     0.04700
H905        H  0.96375295  0.63366186  0.02420251     0.09800
H906        H  0.99477403  0.65539499  0.00575826     0.08600
N907        N  0.07244547  0.85751440  0.04637874    -0.25800
N908        N  0.07068339  0.84463915  0.04581016    -0.33600
C909        C  0.08092083  0.83850418  0.05140431     0.02600
C910        C  0.08971045  0.84784893  0.05584057     0.08600
C911        C  0.08401415  0.85986871  0.05256929    -0.04500
H912        H  0.08198722  0.82793164  0.05198540     0.09300
H913        H  0.08822191  0.86952920  0.05408538     0.10500
Cu914      Cu  0.05494054  0.83540247  0.03707963     0.44200
Cu915      Cu  0.05893186  0.87062721  0.03762232     0.42000
Cu916      Cu  0.03044250  0.85401706  0.02119713     0.43900
N917        N  0.03877058  0.82683178  0.02845968    -0.33100
N918        N  0.02944270  0.83357150  0.02248037    -0.27400
C919        C  0.02016171  0.82509623  0.01816491    -0.03500
C920        C  0.02389219  0.81242702  0.02172333     0.08700
C921        C  0.03578706  0.81398996  0.02816626     0.02500
H922        H  0.01126560  0.82797330  0.01309570     0.10200
H923        H  0.04192776  0.80636030  0.03229838     0.09200
N924        N  0.03370772  0.87429182  0.02152711    -0.34600
N925        N  0.04364270  0.88035830  0.02743515    -0.26800
C926        C  0.04222829  0.89345397  0.02564899    -0.02000
C927        C  0.03095201  0.89573927  0.01821803     0.06600
C928        C  0.02587322  0.88331224  0.01583631     0.04700
H929        H  0.04903307  0.90077173  0.02932561     0.09800
H930        H  0.01696085  0.88095616  0.01051518     0.08600
N931        N  0.33157872  0.80347118  0.91576718    -0.25800
N932        N  0.33152569  0.80304809  0.92875866    -0.33600
C933        C  0.34235531  0.80903632  0.93340616     0.02600
C934        C  0.34967499  0.81360683  0.92288545     0.08600
C935        C  0.34252080  0.80989521  0.91181141    -0.04500
H936        H  0.34433374  0.81062770  0.94374177     0.09300
H937        H  0.34492115  0.81196485  0.90165980     0.10500
Cu938      Cu  0.31602258  0.79605812  0.93984989     0.44200
Cu939      Cu  0.31598980  0.79601204  0.90446016     0.42000
Cu940      Cu  0.28614462  0.78728344  0.92330796     0.43900
N941        N  0.29896692  0.79107211  0.94967399    -0.33100
N942        N  0.28773525  0.78822229  0.94376911    -0.27400
C943        C  0.27845638  0.78613617  0.95304037    -0.03500
C944        C  0.28424610  0.78764581  0.96533034     0.08700
C945        C  0.29723059  0.79078954  0.96275730     0.02500
H946        H  0.26831172  0.78364289  0.95099195     0.10200
H947        H  0.30480664  0.79309185  0.96987449     0.09200
N948        N  0.28782499  0.78581268  0.90286861    -0.34600
N949        N  0.29859750  0.78859843  0.89610072    -0.26800
C950        C  0.29633127  0.78603276  0.88328448    -0.02000
C951        C  0.28346269  0.78149609  0.88177051     0.06600
C952        C  0.27845431  0.78155435  0.89451515     0.04700
H953        H  0.30369147  0.78719890  0.87569259     0.09800
H954        H  0.26864437  0.77885383  0.89761443     0.08600
N955        N  0.19510782  0.81004805  0.10127818    -0.25800
N956        N  0.19664077  0.80804355  0.08854339    -0.33600
C957        C  0.18631317  0.81289908  0.08198255     0.02600
C958        C  0.17764033  0.81838364  0.09089751     0.08600
C959        C  0.18348225  0.81628836  0.10314788    -0.04500
H960        H  0.18521119  0.81236275  0.07141653     0.09300
H961        H  0.17970522  0.81929374  0.11263084     0.10500
Cu962      Cu  0.21284529  0.79945027  0.08017118     0.44200
Cu963      Cu  0.20978955  0.80393251  0.11452259     0.42000
Cu964      Cu  0.24084406  0.79087110  0.09830303     0.43900
N965        N  0.22995088  0.79346231  0.07135275    -0.33100
N966        N  0.24084041  0.79067659  0.07782792    -0.27400
C967        C  0.25046676  0.78808631  0.06902993    -0.03500
C968        C  0.24515662  0.78920820  0.05646605     0.08700
C969        C  0.23216990  0.79265431  0.05840316     0.02500
H970        H  0.26048431  0.78556160  0.07156485     0.10200
H971        H  0.22492798  0.79487864  0.05093369     0.09200
N972        N  0.23687016  0.79108933  0.11842257    -0.34600
N973        N  0.22616617  0.79576400  0.12423916    -0.26800
C974        C  0.22730172  0.79383957  0.13731761    -0.02000
C975        C  0.23921102  0.78759567  0.13990003     0.06600
C976        C  0.24491130  0.78602432  0.12760257     0.04700
H977        H  0.21992613  0.79680260  0.14438152     0.09800
H978        H  0.25408193  0.78115499  0.12531873     0.08600
C979        C  0.04575234  0.53992018  0.98460876     0.04700
C980        C  0.04044034  0.53356069  0.97351601    -0.11500
C981        C  0.02926603  0.53856589  0.96707653     0.02200
C982        C  0.02323964  0.55001039  0.97203423    -0.10000
C983        C  0.02838243  0.55657595  0.98311538     0.04700
C984        C  0.03976664  0.55154390  0.98924126    -0.09400
H985        H  0.04503576  0.52465178  0.96988231     0.10300
H986        H  0.01465658  0.55397265  0.96711056     0.07800
H987        H  0.04372636  0.55644068  0.99784923     0.07600
C988        C  0.48376195  0.56197207  0.02616419     0.04700
C989        C  0.47274379  0.55633688  0.01992398    -0.11500
C990        C  0.46685425  0.54485039  0.02485224     0.02200
C991        C  0.47229185  0.53872438  0.03599225    -0.10000
C992        C  0.48346678  0.54400246  0.04227143     0.04700
C993        C  0.48907584  0.55569405  0.03733411    -0.09400
H994        H  0.46860214  0.56099771  0.01128460     0.10300
H995        H  0.46775056  0.52987549  0.03983477     0.07800
H996        H  0.49752922  0.55994774  0.04225443     0.07600
N997        N  0.91673975  0.70823473  0.71017896    -0.25800
N998        N  0.92905923  0.71147788  0.70759950    -0.33600
C999        C  0.93452440  0.70223234  0.69994204     0.02600
C1000       C  0.92525736  0.69256554  0.69757913     0.08600
C1001       C  0.91405830  0.69665845  0.70427310    -0.04500
H1002       H  0.94476296  0.70215666  0.69701329     0.09300
H1003       H  0.90479346  0.69147648  0.70507011     0.10500
Cu1004     Cu  0.93859858  0.72726234  0.71592876     0.44200
Cu1005     Cu  0.90486725  0.71981343  0.72218278     0.42000
Cu1006     Cu  0.92212033  0.74802157  0.73849215     0.43900
N1007       N  0.94808594  0.74184064  0.72626892    -0.33100
N1008       N  0.94225599  0.74973439  0.73477604    -0.27400
C1009       C  0.95143846  0.75776685  0.74009233    -0.03500
C1010       C  0.96360599  0.75452871  0.73471147     0.08700
C1011       C  0.96100336  0.74445920  0.72595585     0.02500
H1012       H  0.94948167  0.76509270  0.74755935     0.10200
H1013       H  0.96800580  0.73931124  0.71981498     0.09200
N1014       N  0.90197793  0.74400885  0.73957665    -0.34600
N1015       N  0.89581211  0.73409340  0.73375729    -0.26800
C1016       C  0.88284105  0.73494290  0.73638789    -0.02000
C1017       C  0.88072062  0.74584331  0.74429738     0.06600
C1018       C  0.89308169  0.75132466  0.74607826     0.04700
H1019       H  0.87552782  0.72803796  0.73288216     0.09800
H1020       H  0.89544718  0.76017819  0.75149817     0.08600
N1021       N  0.10524706  0.83283099  0.71213066    -0.25800
N1022       N  0.09295897  0.82946589  0.70971041    -0.33600
C1023       C  0.08696493  0.83893645  0.70284061     0.02600
C1024       C  0.09578833  0.84909255  0.70089104     0.08600
C1025       C  0.10741182  0.84482321  0.70682644    -0.04500
H1026       H  0.07671421  0.83858921  0.70000005     0.09300
H1027       H  0.11646229  0.85031887  0.70788010     0.10500
Cu1028     Cu  0.08400313  0.81360169  0.71802140     0.44200
Cu1029     Cu  0.11701837  0.82044340  0.72362778     0.42000
Cu1030     Cu  0.09852182  0.79203412  0.74034435     0.43900
N1031       N  0.07326537  0.80020573  0.72833203    -0.33100
N1032       N  0.07819741  0.79170369  0.73675553    -0.27400
C1033       C  0.06819875  0.78420636  0.74139501    -0.03500
C1034       C  0.05649873  0.78836487  0.73546203     0.08700
C1035       C  0.06025103  0.79865284  0.72744368     0.02500
H1036       H  0.06939669  0.77621889  0.74830217     0.10200
H1037       H  0.05402520  0.80478128  0.72140463     0.09200
N1038       N  0.11892831  0.79543598  0.74055621    -0.34600
N1039       N  0.12537862  0.80521131  0.73476332    -0.26800
C1040       C  0.13837103  0.80371629  0.73704298    -0.02000
C1041       C  0.14026012  0.79256085  0.74465314     0.06600
C1042       C  0.12769377  0.78760428  0.74662542     0.04700
H1043       H  0.14587088  0.81040807  0.73353583     0.09800
H1044       H  0.12506404  0.77876098  0.75191586     0.08600
N1045       N  0.96860680  0.58628441  0.66276560    -0.25800
N1046       N  0.97002504  0.58597595  0.67568077    -0.33600
C1047       C  0.96546105  0.59717681  0.68092058     0.02600
C1048       C  0.96084737  0.60507645  0.67090203     0.08600
C1049       C  0.96290247  0.59782884  0.65946069    -0.04500
H1050       H  0.96526178  0.59927704  0.69135610     0.09300
H1051       H  0.96064496  0.60081593  0.64950575     0.10500
Cu1052     Cu  0.97700529  0.57013161  0.68611362     0.44200
Cu1053     Cu  0.97511800  0.57067136  0.65092348     0.42000
Cu1054     Cu  0.98384856  0.54030874  0.66965167     0.43900
N1055       N  0.98010595  0.55276462  0.69598948    -0.33100
N1056       N  0.98234133  0.54143512  0.69005952    -0.27400
C1057       C  0.98292390  0.53187908  0.69924189    -0.03500
C1058       C  0.98081215  0.53755530  0.71151489     0.08700
C1059       C  0.97914954  0.55081876  0.70899290     0.02500
H1060       H  0.98434009  0.52155628  0.69709786     0.10200
H1061       H  0.97722189  0.55854217  0.71606270     0.09200
N1062       N  0.98614829  0.54274402  0.64941693    -0.34600
N1063       N  0.98342154  0.55360057  0.64274278    -0.26800
C1064       C  0.98708549  0.55182412  0.63010960    -0.02000
C1065       C  0.99221384  0.53925114  0.62873734     0.06600
C1066       C  0.99140991  0.53380546  0.64117671     0.04700
H1067       H  0.98606082  0.55914547  0.62246767     0.09800
H1068       H  0.99479077  0.52416767  0.64413670     0.08600
N1069       N  0.96100301  0.45221014  0.85123131    -0.25800
N1070       N  0.95564710  0.45646003  0.84019190    -0.33600
C1071       C  0.94862544  0.44681348  0.83457855     0.02600
C1072       C  0.94951401  0.43571400  0.84230377     0.08600
C1073       C  0.95755485  0.43943051  0.85281282    -0.04500
H1074       H  0.94391395  0.44759536  0.82506981     0.09300
H1075       H  0.96082008  0.43325799  0.86082540     0.10500
Cu1076     Cu  0.95998044  0.47409780  0.83150453     0.44200
Cu1077     Cu  0.97304104  0.46483881  0.86258746     0.42000
Cu1078     Cu  0.98404932  0.49515955  0.84434291     0.43900
N1079       N  0.96852052  0.48861437  0.82045130    -0.33100
N1080       N  0.97781848  0.49651129  0.82486493    -0.27400
C1081       C  0.98200004  0.50414215  0.81483661    -0.03500
C1082       C  0.97494142  0.50074351  0.80356649     0.08700
C1083       C  0.96656909  0.49079790  0.80762151     0.02500
H1084       H  0.98961910  0.51152177  0.81570878     0.10200
H1085       H  0.95992104  0.48505373  0.80161431     0.09200
N1086       N  0.98714058  0.49153502  0.86430349    -0.34600
N1087       N  0.98349494  0.48085959  0.87086479    -0.26800
C1088       C  0.98707403  0.48236587  0.88358503    -0.02000
C1089       C  0.99311487  0.49455660  0.88511234     0.06600
C1090       C  0.99295032  0.50001944  0.87265540     0.04700
H1091       H  0.98509979  0.47525616  0.89124602     0.09800
H1092       H  0.99682094  0.50951589  0.86981049     0.08600
N1093       N  0.06022912  0.95719523  0.66246528    -0.25800
N1094       N  0.06546797  0.96147368  0.67355883    -0.33600
C1095       C  0.07239072  0.95176040  0.67916658     0.02600
C1096       C  0.07140605  0.94063299  0.67137004     0.08600
C1097       C  0.06369335  0.94449442  0.66074853    -0.04500
H1098       H  0.07718249  0.95260672  0.68862409     0.09300
H1099       H  0.06014759  0.93831598  0.65284026     0.10500
Cu1100     Cu  0.06045837  0.97900381  0.68242190     0.44200
Cu1101     Cu  0.04757919  0.96895429  0.65136198     0.42000
Cu1102     Cu  0.03363491  0.99746373  0.66932634     0.43900
N1103       N  0.04994971  0.99247588  0.69334701    -0.33100
N1104       N  0.03970758  0.99910831  0.68888852    -0.27400
C1105       C  0.03404294  0.00553071  0.69906041    -0.03500
C1106       C  0.04101167  0.00255296  0.71043383     0.08700
C1107       C  0.05104740  0.99434175  0.70635809     0.02500
H1108       H  0.02512040  0.01127638  0.69836637     0.10200
H1109       H  0.05828742  0.98955482  0.71250057     0.09200
N1110       N  0.03101993  0.99380245  0.64925709    -0.34600
N1111       N  0.03610940  0.98369380  0.64279422    -0.26800
C1112       C  0.03321663  0.98492752  0.62991830    -0.02000
C1113       C  0.02592819  0.99632075  0.62813498     0.06600
C1114       C  0.02471856  0.00163861  0.64064984     0.04700
H1115       H  0.03629897  0.97805294  0.62240244     0.09800
H1116       H  0.02004233  0.01082622  0.64326807     0.08600
N1117       N  0.05568826  0.08189894  0.84910368    -0.25800
N1118       N  0.06039914  0.07731137  0.83790367    -0.33600
C1119       C  0.06680372  0.08692395  0.83152418     0.02600
C1120       C  0.06596135  0.09848405  0.83877473     0.08600
C1121       C  0.05888780  0.09478975  0.84999976    -0.04500
H1122       H  0.07127980  0.08550153  0.82200193     0.09300
H1123       H  0.05561989  0.10113076  0.85788473     0.10500
Cu1124     Cu  0.05535086  0.05933001  0.82989595     0.44200
Cu1125     Cu  0.04409869  0.07001245  0.86158699     0.42000
Cu1126     Cu  0.02775249  0.04271634  0.84397148     0.43900
N1127       N  0.04505205  0.04476909  0.82013498    -0.33100
N1128       N  0.03427157  0.03915705  0.82477707    -0.27400
C1129       C  0.02924237  0.03118065  0.81539767    -0.03500
C1130       C  0.03741786  0.03175164  0.80445757     0.08700
C1131       C  0.04728676  0.04046866  0.80785181     0.02500
H1132       H  0.02039597  0.02535148  0.81648562     0.10200
H1133       H  0.05526861  0.04382125  0.80164998     0.09200
N1134       N  0.02603510  0.04614677  0.86420762    -0.34600
N1135       N  0.03225764  0.05556440  0.87071720    -0.26800
C1136       C  0.02997618  0.05391869  0.88370922    -0.02000
C1137       C  0.02187379  0.04296867  0.88556651     0.06600
C1138       C  0.01957177  0.03844623  0.87284223     0.04700
H1139       H  0.03434862  0.06000692  0.89125245     0.09800
H1140       H  0.01376804  0.03003107  0.86993160     0.08600
N1141       N  0.09749549  0.20738367  0.79537881    -0.25800
N1142       N  0.08458902  0.20893969  0.79490793    -0.33600
C1143       C  0.07862294  0.19839504  0.80012217     0.02600
C1144       C  0.08812569  0.18957959  0.80417652     0.08600
C1145       C  0.10004919  0.19564108  0.80108761    -0.04500
H1146       H  0.06806152  0.19725585  0.80086438     0.09300
H1147       H  0.10980159  0.19164031  0.80251117     0.10500
Cu1148     Cu  0.07515664  0.22489019  0.78683249     0.44200
Cu1149     Cu  0.11043909  0.22152285  0.78741044     0.42000
Cu1150     Cu  0.09388220  0.25087355  0.77313479     0.43900
N1151       N  0.06666306  0.24067409  0.77750331    -0.33100
N1152       N  0.07344136  0.25050337  0.77240840    -0.27400
C1153       C  0.06499948  0.25896972  0.76668387    -0.03500
C1154       C  0.05231345  0.25407947  0.76819697     0.08700
C1155       C  0.05381104  0.24251385  0.77518100     0.02500
H1156       H  0.06791485  0.26782503  0.76156230     0.10200
H1157       H  0.04612067  0.23591531  0.77845104     0.09200
N1158       N  0.11412682  0.24782953  0.77328388    -0.34600
N1159       N  0.12015444  0.23731538  0.77805730    -0.26800
C1160       C  0.13315538  0.23841574  0.77550051    -0.02000
C1161       C  0.13542156  0.25016595  0.76886071     0.06600
C1162       C  0.12308642  0.25583088  0.76770627     0.04700
H1163       H  0.14042069  0.23115398  0.77823723     0.09800
H1164       H  0.12067503  0.26489189  0.76270018     0.08600
N1165       N  0.91446037  0.33726520  0.78251598    -0.25800
N1166       N  0.92715710  0.33749271  0.77968215    -0.33600
C1167       C  0.93292285  0.34757880  0.78593767     0.02600
C1168       C  0.92350443  0.35425697  0.79312825     0.08600
C1169       C  0.91185074  0.34738253  0.79077412    -0.04500
H1170       H  0.94337140  0.34958521  0.78561065     0.09300
H1171       H  0.90222196  0.34956602  0.79474542     0.10500
Cu1172     Cu  0.93691892  0.32356820  0.76865492     0.44200
Cu1173     Cu  0.90192933  0.32252999  0.77504591     0.42000
Cu1174     Cu  0.92016928  0.29405508  0.76135894     0.43900
N1175       N  0.94655701  0.30709606  0.76188552    -0.33100
N1176       N  0.94053121  0.29574805  0.75995815    -0.27400
C1177       C  0.94965355  0.28644048  0.75753965    -0.03500
C1178       C  0.96196725  0.29234879  0.75780614     0.08700
C1179       C  0.95960391  0.30543697  0.76057199     0.02500
H1180       H  0.94751954  0.27612674  0.75602134     0.10200
H1181       H  0.96687779  0.31300820  0.76237380     0.09200
N1182       N  0.89974157  0.29565307  0.76186306    -0.34600
N1183       N  0.89306367  0.30585678  0.76645960    -0.26800
C1184       C  0.88008409  0.30350620  0.76475141    -0.02000
C1185       C  0.87851942  0.29121766  0.75890756     0.06600
C1186       C  0.89124098  0.28661897  0.75722784     0.04700
H1187       H  0.87235331  0.31016798  0.76775240     0.09800
H1188       H  0.89417790  0.27744233  0.75271671     0.08600
C1189       C  0.99309771  0.05623954  0.52841850     0.04700
C1190       C  0.98182528  0.05126848  0.52220080    -0.11500
C1191       C  0.97574144  0.03968409  0.52673508     0.02200
C1192       C  0.98103642  0.03327629  0.53783265    -0.10000
C1193       C  0.99212434  0.03842161  0.54437010     0.04700
C1194       C  0.99815992  0.04985600  0.53951168    -0.09400
H1195       H  0.97780481  0.05647298  0.51382014     0.10300
H1196       H  0.97651259  0.02432872  0.54144665     0.07800
H1197       H  0.00682125  0.05378716  0.54435455     0.07600
C1198       C  0.04575369  0.49708586  0.52846326     0.04700
C1199       C  0.03976814  0.48564509  0.52344800    -0.11500
C1200       C  0.02860298  0.48022061  0.52954774     0.02200
C1201       C  0.02344121  0.48627635  0.54083487    -0.10000
C1202       C  0.02927930  0.49767336  0.54609171     0.04700
C1203       C  0.04041615  0.50304285  0.53978545    -0.09400
H1204       H  0.04386510  0.48087176  0.51483473     0.10300
H1205       H  0.01507743  0.48184712  0.54575680     0.07800
H1206       H  0.04483201  0.51197725  0.54358016     0.07600
C1207       C  0.99269385  0.98282160  0.98732484     0.04700
C1208       C  0.99784427  0.98944117  0.97627991    -0.11500
C1209       C  0.99198840  0.00112795  0.97164561     0.02200
C1210       C  0.98114216  0.00634227  0.97852914    -0.10000
C1211       C  0.97584720  0.99988083  0.98957824     0.04700
C1212       C  0.98170460  0.98811795  0.99388003    -0.09400
H1213       H  0.00604580  0.98517330  0.97096717     0.10300
H1214       H  0.97672583  0.01544614  0.97520112     0.07800
H1215       H  0.97755927  0.98291818  0.00221206     0.07600
C1216       C  0.78064517  0.80495497  0.77436975     0.04700
C1217       C  0.77337806  0.80007015  0.78513726    -0.11500
C1218       C  0.77763517  0.78886464  0.79208091     0.02200
C1219       C  0.78913408  0.78236461  0.78795285    -0.10000
C1220       C  0.79651050  0.78703909  0.77725810     0.04700
C1221       C  0.79220032  0.79833696  0.77056363    -0.09400
H1222       H  0.76450880  0.80509230  0.78824635     0.10300
H1223       H  0.79247618  0.77374060  0.79323318     0.07800
H1224       H  0.79796678  0.80206794  0.76241508     0.07600
C1225       C  0.24092395  0.73423655  0.77800302     0.04700
C1226       C  0.24658545  0.73898293  0.78973275    -0.11500
C1227       C  0.24097221  0.74973830  0.79654564     0.02200
C1228       C  0.22955453  0.75563955  0.79132925    -0.10000
C1229       C  0.22386104  0.75102734  0.77959051     0.04700
C1230       C  0.22960062  0.74033167  0.77300644    -0.09400
H1231       H  0.25545457  0.73437778  0.79342105     0.10300
H1232       H  0.22484504  0.76364452  0.79655853     0.07800
H1233       H  0.22520978  0.73669902  0.76398597     0.07600
C1234       C  0.77590598  0.24515304  0.71487553     0.04700
C1235       C  0.78770925  0.25084632  0.71936906    -0.11500
C1236       C  0.79456956  0.24550394  0.73015734     0.02200
C1237       C  0.78934227  0.23436175  0.73653275    -0.10000
C1238       C  0.77748510  0.22861157  0.73224348     0.04700
C1239       C  0.77085346  0.23408615  0.72144337    -0.09400
H1240       H  0.79162038  0.25940803  0.71437680     0.10300
H1241       H  0.79464092  0.22996665  0.74466206     0.07800
H1242       H  0.76163279  0.22978441  0.71822666     0.07600
C1243       C  0.72048674  0.79502409  0.23149083     0.04700
C1244       C  0.72695521  0.78978403  0.22045080    -0.11500
C1245       C  0.73852139  0.79559611  0.21556747     0.02200
C1246       C  0.74375895  0.80669311  0.22201896    -0.10000
C1247       C  0.73741329  0.81212529  0.23309210     0.04700
C1248       C  0.72575240  0.80622706  0.23768383    -0.09400
H1249       H  0.72306363  0.78105428  0.21571192     0.10300
H1250       H  0.75270775  0.81117118  0.21833049     0.07800
H1251       H  0.72057396  0.81055692  0.24593903     0.07600
C1252       C  0.73826933  0.25066621  0.29327190     0.04700
C1253       C  0.74294209  0.23935965  0.28685076    -0.11500
C1254       C  0.73627843  0.23413475  0.27592207     0.02200
C1255       C  0.72486607  0.24043147  0.27134823    -0.10000
C1256       C  0.72013655  0.25192294  0.27743280     0.04700
C1257       C  0.72690959  0.25696267  0.28843434    -0.09400
H1258       H  0.75169151  0.23449190  0.29050205     0.10300
H1259       H  0.71947041  0.23618871  0.26318472     0.07800
H1260       H  0.72341813  0.26584148  0.29318735     0.07600
C1261       C  0.23575583  0.30781246  0.73586138     0.04700
C1262       C  0.22476962  0.30075702  0.74051434    -0.11500
C1263       C  0.21988316  0.28975916  0.73361655     0.02200
C1264       C  0.22613533  0.28593603  0.72185371    -0.10000
C1265       C  0.23714230  0.29284924  0.71707717     0.04700
C1266       C  0.24197904  0.30366954  0.72420666    -0.09400
H1267       H  0.21986990  0.30399615  0.74941412     0.10300
H1268       H  0.22252292  0.27748483  0.71643948     0.07800
H1269       H  0.25029905  0.30916379  0.72040759     0.07600
C1270       C  0.29607482  0.75304344  0.24015658     0.04700
C1271       C  0.29070424  0.74191117  0.24646981    -0.11500
C1272       C  0.27913819  0.73590724  0.24168343     0.02200
C1273       C  0.27281650  0.74136841  0.23067250    -0.10000
C1274       C  0.27806529  0.75238603  0.22424845     0.04700
C1275       C  0.28967791  0.75812541  0.22900976    -0.09400
H1276       H  0.29563110  0.73779401  0.25496423     0.10300
H1277       H  0.26378088  0.73700619  0.22703892     0.07800
H1278       H  0.29394513  0.76636586  0.22376226     0.07600
C1279       C  0.48940279  0.50148361  0.46273665     0.04700
C1280       C  0.49519350  0.49042525  0.46865665    -0.11500
C1281       C  0.48898154  0.48388837  0.47923189     0.02200
C1282       C  0.47702095  0.48907472  0.48410577    -0.10000
C1283       C  0.47150648  0.50062695  0.47879661     0.04700
C1284       C  0.47768690  0.50663427  0.46798813    -0.09400
H1285       H  0.50445397  0.48682008  0.46481204     0.10300
H1286       H  0.47193107  0.48416060  0.49206331     0.07800
H1287       H  0.47329087  0.51526455  0.46354623     0.07600
C1288       C  0.29817201  0.29336340  0.27658931     0.04700
C1289       C  0.29154213  0.28815119  0.28755182    -0.11500
C1290       C  0.28050189  0.29449872  0.29287091     0.02200
C1291       C  0.27579264  0.30603972  0.28690423    -0.10000
C1292       C  0.28208529  0.31130815  0.27572634     0.04700
C1293       C  0.29337771  0.30497351  0.27077222    -0.09400
H1294       H  0.29500863  0.27913569  0.29204312     0.10300
H1295       H  0.26707261  0.31075274  0.29083310     0.07800
H1296       H  0.29859415  0.30924551  0.26251897     0.07600
C1297       C  0.82869791  0.26118708  0.72969135     0.14200
C1298       C  0.83071290  0.26406182  0.74304840     0.01200
C1299       C  0.82105149  0.26043942  0.75223913     0.16100
C1300       C  0.80938276  0.25429632  0.74810756     0.25600
C1301       C  0.80720371  0.25156365  0.73467249    -0.40800
C1302       C  0.81710874  0.25493247  0.72553799     0.32600
C1303       C  0.84282075  0.27102146  0.74735427     0.01200
F1304       F  0.82282977  0.26309641  0.76520853    -0.13100
F1305       F  0.81567123  0.25198433  0.71258654    -0.13600
C1306       C  0.84362836  0.28478814  0.74656615     0.16200
C1307       C  0.85511830  0.29140296  0.75048475     0.25600
C1308       C  0.86608272  0.28433041  0.75518101    -0.40700
C1309       C  0.86515700  0.27050013  0.75602664     0.32500
C1310       C  0.85363368  0.26393827  0.75217212     0.14200
F1311       F  0.83326909  0.29181565  0.74192312    -0.13100
F1312       F  0.87529812  0.26329959  0.76087106    -0.13600
F1313       F  0.85563700  0.30468419  0.74926294    -0.15900
F1314       F  0.85304335  0.25062771  0.75307824    -0.14400
F1315       F  0.83799636  0.26444185  0.72066339    -0.14400
F1316       F  0.80002668  0.25143818  0.75720903    -0.15900
C1317       C  0.16249745  0.27390033  0.75826298     0.14200
C1318       C  0.17208607  0.26529701  0.75328874     0.01200
C1319       C  0.16957355  0.25171495  0.75330375     0.16100
C1320       C  0.15769428  0.24678075  0.75837461     0.25600
C1321       C  0.14809091  0.25536286  0.76353685    -0.40800
C1322       C  0.15061168  0.26901416  0.76331503     0.32600
C1323       C  0.18466371  0.27060301  0.74805921     0.01200
F1324       F  0.17860503  0.24323700  0.74831172    -0.13100
F1325       F  0.14171329  0.27766169  0.76825777    -0.13600
C1326       C  0.19535575  0.27289149  0.75651243     0.16200
C1327       C  0.20691196  0.27880699  0.75177993     0.25600
C1328       C  0.20796554  0.28261780  0.73848027    -0.40700
C1329       C  0.19732382  0.27995318  0.72996709     0.32500
C1330       C  0.18580069  0.27400527  0.73472773     0.14200
F1331       F  0.19451812  0.26953572  0.76940960    -0.13100
F1332       F  0.19783909  0.28361104  0.71713729    -0.13600
F1333       F  0.21711219  0.28073751  0.76019476    -0.15900
F1334       F  0.17559107  0.27185217  0.72638242    -0.14400
F1335       F  0.16468320  0.28707951  0.75822880    -0.14400
F1336       F  0.15541395  0.23363795  0.75780194    -0.15900
C1337       C  0.02490740  0.27861022  0.76212073     0.14200
C1338       C  0.01430085  0.27018822  0.75911856     0.01200
C1339       C  0.01669082  0.25664836  0.75771457     0.16100
C1340       C  0.02922415  0.25152363  0.76004498     0.25600
C1341       C  0.03966254  0.25983231  0.76381451    -0.40800
C1342       C  0.03751017  0.27348744  0.76432948     0.32600
C1343       C  0.00067188  0.27538737  0.75810868     0.01200
F1344       F  0.00682246  0.24833062  0.75421741    -0.13100
F1345       F  0.04738022  0.28182849  0.76774093    -0.13600
C1346       C  0.99776454  0.28600253  0.74974123     0.16200
C1347       C  0.98509756  0.29139865  0.74950148     0.25600
C1348       C  0.97501393  0.28599619  0.75728068    -0.40700
C1349       C  0.97777154  0.27510523  0.76529665     0.32500
C1350       C  0.99052913  0.26997330  0.76586679     0.14200
F1351       F  0.00718683  0.29112233  0.74176726    -0.13100
F1352       F  0.96829320  0.26990057  0.77314985    -0.13600
F1353       F  0.98264444  0.30186855  0.74159768    -0.15900
F1354       F  0.99309466  0.26006352  0.77443598    -0.14400
F1355       F  0.02293578  0.29173095  0.76364038    -0.14400
F1356       F  0.03113576  0.23838573  0.75859787    -0.15900
C1357       C  0.01422989  0.01613419  0.94520848     0.14200
C1358       C  0.00511911  0.01919387  0.93524912     0.01200
C1359       C  0.99174015  0.01640472  0.93736270     0.16100
C1360       C  0.98751298  0.01068021  0.94918883     0.25600
C1361       C  0.99660250  0.00748788  0.95917876    -0.40800
C1362       C  0.01003201  0.01029908  0.95703888     0.32600
C1363       C  0.00949644  0.02524344  0.92261594     0.01200
F1364       F  0.98272703  0.01929447  0.92794455    -0.13100
F1365       F  0.01906467  0.00764137  0.96650881    -0.13600
C1366       C  0.00973383  0.01779537  0.91098675     0.16200
C1367       C  0.01369895  0.02347464  0.89902867     0.25600
C1368       C  0.01738938  0.03689633  0.89833145    -0.40700
C1369       C  0.01687649  0.04436684  0.91006932     0.32500
C1370       C  0.01310391  0.03856383  0.92204875     0.14200
F1371       F  0.00629493  0.00488708  0.91125071    -0.13100
F1372       F  0.01965201  0.05741703  0.90998836    -0.13600
F1373       F  0.01420474  0.01561269  0.88825770    -0.15900
F1374       F  0.01271189  0.04605051  0.93310813    -0.14400
F1375       F  0.02722684  0.01867674  0.94340314    -0.14400
F1376       F  0.97451527  0.00796037  0.95073311    -0.15900
C1377       C  0.07634680  0.12737870  0.81700770     0.14200
C1378       C  0.07739000  0.13778071  0.82603988     0.01200
C1379       C  0.07528904  0.13511363  0.83946439     0.16100
C1380       C  0.07193336  0.12234709  0.84367932     0.25600
C1381       C  0.07027735  0.11199401  0.83452088    -0.40800
C1382       C  0.07257904  0.11480588  0.82108074     0.32600
C1383       C  0.07997739  0.15138521  0.82110376     0.01200
F1384       F  0.07609251  0.14493954  0.84848322    -0.13100
F1385       F  0.07070693  0.10563096  0.81158323    -0.13600
C1386       C  0.07205562  0.15656928  0.81100852     0.16200
C1387       C  0.07493539  0.16876637  0.80537483     0.25600
C1388       C  0.08562167  0.17634642  0.80991700    -0.40700
C1389       C  0.09340629  0.17135543  0.82022257     0.32500
C1390       C  0.09062254  0.15897746  0.82576224     0.14200
F1391       F  0.06143632  0.14976995  0.80654775    -0.13100
F1392       F  0.10353460  0.17856968  0.82511930    -0.13600
F1393       F  0.06742801  0.17296363  0.79516126    -0.15900
F1394       F  0.09849935  0.15430954  0.83547114    -0.14400
F1395       F  0.07884852  0.12943280  0.80404074    -0.14400
F1396       F  0.07035819  0.12019442  0.85675085    -0.15900
C1397       C  0.00450622  0.01449131  0.60345819     0.14200
C1398       C  0.01203247  0.01367431  0.59185497     0.01200
C1399       C  0.02406675  0.00681542  0.59220080     0.16100
C1400       C  0.02846284  0.00094117  0.60388455     0.25600
C1401       C  0.02105663  0.00203123  0.61556365    -0.40800
C1402       C  0.00902287  0.00887605  0.61518816     0.32600
C1403       C  0.00730040  0.02005794  0.57951210     0.01200
F1404       F  0.03179235  0.00612857  0.58131871    -0.13100
F1405       F  0.00139948  0.00985711  0.62611352    -0.13600
C1406       C  0.00347003  0.03337506  0.57956128     0.16200
C1407       C  0.99845279  0.03926164  0.56817789     0.25600
C1408       C  0.99733036  0.03204236  0.55642669    -0.40700
C1409       C  0.00133858  0.01881268  0.55626484     0.32500
C1410       C  0.00625016  0.01286130  0.56769629     0.14200
F1411       F  0.00470148  0.04075965  0.59063281    -0.13100
F1412       F  0.00065951  0.01170183  0.54497136    -0.13600
F1413       F  0.99442451  0.05198506  0.56870024    -0.15900
F1414       F  0.00970692  0.99997370  0.56727231    -0.14400
F1415       F  0.99259647  0.02054389  0.60339403    -0.14400
F1416       F  0.04023126  0.99462958  0.60384931    -0.15900
C1417       C  0.03746181  0.99952251  0.74735523     0.14200
C1418       C  0.03490874  0.01256437  0.75109986     0.01200
C1419       C  0.03327345  0.02218539  0.74128310     0.16100
C1420       C  0.03466981  0.01887804  0.72794262     0.25600
C1421       C  0.03785682  0.00592957  0.72426279    -0.40800
C1422       C  0.03889280  0.99622995  0.73408260     0.32600
C1423       C  0.03494408  0.01627765  0.76522468     0.01200
F1424       F  0.03101420  0.03490943  0.74466098    -0.13100
F1425       F  0.04128369  0.98349930  0.73082228    -0.13600
C1426       C  0.04647444  0.01471185  0.77270127     0.16200
C1427       C  0.04701346  0.01920167  0.78569237     0.25600
C1428       C  0.03600361  0.02522515  0.79151429    -0.40700
C1429       C  0.02422712  0.02614332  0.78429850     0.32500
C1430       C  0.02373870  0.02179229  0.77119470     0.14200
F1431       F  0.05741566  0.00932430  0.76723135    -0.13100
F1432       F  0.01344403  0.03191438  0.78966967    -0.13600
F1433       F  0.05838795  0.01782469  0.79256871    -0.15900
F1434       F  0.01240448  0.02313321  0.76425458    -0.14400
F1435       F  0.03875527  0.98998521  0.75660291    -0.14400
F1436       F  0.03365269  0.02845919  0.71870784    -0.15900
C1437       C  0.94796225  0.39952796  0.83313240     0.14200
C1438       C  0.93570115  0.39885410  0.82672595     0.01200
C1439       C  0.92743529  0.40989343  0.82690235     0.16100
C1440       C  0.93166925  0.42166788  0.83269110     0.25600
C1441       C  0.94421058  0.42259193  0.83857286    -0.40800
C1442       C  0.95215070  0.41127321  0.83911156     0.32600
C1443       C  0.93232053  0.38737151  0.81834166     0.01200
F1444       F  0.91559132  0.40951127  0.82072277    -0.13100
F1445       F  0.96437134  0.41184712  0.84447624    -0.13600
C1446       C  0.92235913  0.37844095  0.82189630     0.16200
C1447       C  0.91920558  0.36778992  0.81362137     0.25600
C1448       C  0.92596005  0.36595424  0.80163660    -0.40700
C1449       C  0.93572372  0.37514863  0.79804345     0.32500
C1450       C  0.93886676  0.38568299  0.80631324     0.14200
F1451       F  0.91587701  0.37990617  0.83348364    -0.13100
F1452       F  0.94209009  0.37414712  0.78634168    -0.13600
F1453       F  0.90990369  0.35904942  0.81756251    -0.15900
F1454       F  0.94821326  0.39443072  0.80246214    -0.14400
F1455       F  0.95612929  0.38896660  0.83304147    -0.14400
F1456       F  0.92366713  0.43234363  0.83213147    -0.15900
C1457       C  0.99982563  0.51403515  0.60215854     0.14200
C1458       C  0.00812544  0.52120575  0.59373339     0.01200
C1459       C  0.01128749  0.53428263  0.59694398     0.16100
C1460       C  0.00606019  0.54017847  0.60826958     0.25600
C1461       C  0.99771973  0.53303345  0.61670741    -0.40800
C1462       C  0.99478141  0.51984425  0.61361694     0.32600
C1463       C  0.01350591  0.51507421  0.58160070     0.01200
F1464       F  0.01934931  0.54138886  0.58900631    -0.13100
F1465       F  0.98677149  0.51265594  0.62153218    -0.13600
C1466       C  0.00508487  0.51142464  0.57125686     0.16200
C1467       C  0.01019168  0.50590832  0.55968877     0.25600
C1468       C  0.02384261  0.50377923  0.55829514    -0.40700
C1469       C  0.03222589  0.50730176  0.56877245     0.32500
C1470       C  0.02710829  0.51297292  0.58025790     0.14200
F1471       F  0.99191509  0.51347200  0.57225924    -0.13100
F1472       F  0.04535215  0.50489713  0.56806705    -0.13600
F1473       F  0.00179728  0.50293931  0.54972237    -0.15900
F1474       F  0.03541929  0.51619067  0.59021360    -0.14400
F1475       F  0.99673033  0.50134338  0.59934918    -0.14400
F1476       F  0.00947558  0.55275874  0.61118940    -0.15900
C1477       C  0.98762398  0.51499257  0.74057899     0.14200
C1478       C  0.97900653  0.52014956  0.75010120     0.01200
C1479       C  0.97066572  0.53059810  0.74668752     0.16100
C1480       C  0.97104268  0.53597138  0.73407150     0.25600
C1481       C  0.97987876  0.53108975  0.72456672    -0.40800
C1482       C  0.98802458  0.52038559  0.72787720     0.32600
C1483       C  0.97837064  0.51461933  0.76357091     0.01200
F1484       F  0.96221545  0.53573379  0.75568346    -0.13100
F1485       F  0.99663513  0.51538584  0.71897203    -0.13600
C1486       C  0.98925700  0.51530155  0.77207642     0.16200
C1487       C  0.98819571  0.51095797  0.78513450     0.25600
C1488       C  0.97618271  0.50588298  0.78991136    -0.40700
C1489       C  0.96530532  0.50530724  0.78129152     0.32500
C1490       C  0.96645699  0.50946826  0.76826861     0.14200
F1491       F  0.00083383  0.52044892  0.76781533    -0.13100
F1492       F  0.95334189  0.50110672  0.78550173    -0.13600
F1493       F  0.99898930  0.51154485  0.79297287    -0.15900
F1494       F  0.95583669  0.50854586  0.76020412    -0.14400
F1495       F  0.99554888  0.50467069  0.74355255    -0.14400
F1496       F  0.96251963  0.54580805  0.73111423    -0.15900
C1497       C  0.17630893  0.78230364  0.74707313     0.14200
C1498       C  0.17649729  0.77557487  0.75916992     0.01200
C1499       C  0.16483507  0.77486521  0.76658224     0.16100
C1500       C  0.15317463  0.78049506  0.76191849     0.25600
C1501       C  0.15286453  0.78703710  0.74971309    -0.40800
C1502       C  0.16463199  0.78802147  0.74240759     0.32600
C1503       C  0.18876382  0.76923926  0.76410832     0.01200
F1504       F  0.16478007  0.76889647  0.77852373    -0.13100
F1505       F  0.16478133  0.79409966  0.73052622    -0.13600
C1506       C  0.20036470  0.77662513  0.76585500     0.16200
C1507       C  0.21175687  0.77070874  0.77090168     0.25600
C1508       C  0.21178891  0.75729401  0.77425621    -0.40700
C1509       C  0.20023622  0.74988246  0.77244341     0.32500
C1510       C  0.18883937  0.75578995  0.76742810     0.14200
F1511       F  0.20058309  0.78965369  0.76295185    -0.13100
F1512       F  0.19991436  0.73696197  0.77580007    -0.13600
F1513       F  0.22283660  0.77804472  0.77236402    -0.15900
F1514       F  0.17787394  0.74833077  0.76571861    -0.14400
F1515       F  0.18735548  0.78301842  0.73957926    -0.14400
F1516       F  0.14225629  0.77983626  0.76958718    -0.15900
C1517       C  0.07962310  0.91036587  0.69155117     0.14200
C1518       C  0.08355195  0.90135320  0.68184981     0.01200
C1519       C  0.08383092  0.90537450  0.66862484     0.16100
C1520       C  0.07993506  0.91816024  0.66515167     0.25600
C1521       C  0.07581257  0.92714562  0.67488062    -0.40800
C1522       C  0.07575140  0.92307125  0.68813421     0.32600
C1523       C  0.08659788  0.88761746  0.68568083     0.01200
F1524       F  0.08753801  0.89681780  0.65905748    -0.13100
F1525       F  0.07139992  0.93115848  0.69783180    -0.13600
C1526       C  0.07695727  0.88009625  0.69209753     0.16200
C1527       C  0.07993688  0.86763287  0.69697600     0.25600
C1528       C  0.09264472  0.86225533  0.69536538    -0.40700
C1529       C  0.10220302  0.86964415  0.68857125     0.32500
C1530       C  0.09920531  0.88224167  0.68378676     0.14200
F1531       F  0.06462330  0.88495371  0.69384069    -0.13100
F1532       F  0.11440815  0.86464789  0.68646676    -0.13600
F1533       F  0.07045719  0.86115159  0.70380015    -0.15900
F1534       F  0.10871946  0.88934735  0.67766758    -0.14400
F1535       F  0.07940534  0.90678591  0.70442041    -0.14400
F1536       F  0.08031497  0.92177479  0.65230793    -0.15900
C1537       C  0.85597949  0.76189372  0.76716026     0.14200
C1538       C  0.84440717  0.76150499  0.75962517     0.01200
C1539       C  0.84465327  0.75544766  0.74718712     0.16100
C1540       C  0.85637671  0.75009702  0.74225189     0.25600
C1541       C  0.86807038  0.75077660  0.74967913    -0.40800
C1542       C  0.86768443  0.75658011  0.76225445     0.32600
C1543       C  0.83223533  0.76787328  0.76455011     0.01200
F1544       F  0.83364075  0.75515655  0.73962144    -0.13100
F1545       F  0.87860335  0.75691135  0.76994172    -0.13600
C1546       C  0.83202273  0.78149320  0.76688246     0.16200
C1547       C  0.82049736  0.78765231  0.77120847     0.25600
C1548       C  0.80889911  0.78032144  0.77322292    -0.40700
C1549       C  0.80923229  0.76659991  0.77120271     0.32500
C1550       C  0.82079946  0.76044900  0.76687794     0.14200
F1551       F  0.84295757  0.78888223  0.76474169    -0.13100
F1552       F  0.79827997  0.75917390  0.77309526    -0.13600
F1553       F  0.82073956  0.80078732  0.77362626    -0.15900
F1554       F  0.82087890  0.74721833  0.76503672    -0.14400
F1555       F  0.85591886  0.76738907  0.77933893    -0.14400
F1556       F  0.85638723  0.74479016  0.72999027    -0.15900
C1557       C  0.93779092  0.63443822  0.66834667     0.14200
C1558       C  0.94317227  0.64286361  0.67788654     0.01200
C1559       C  0.95467981  0.63917098  0.68451320     0.16100
C1560       C  0.96060422  0.62706444  0.68189674     0.25600
C1561       C  0.95511131  0.61838219  0.67258049    -0.40800
C1562       C  0.94373021  0.62225099  0.66568472     0.32600
C1563       C  0.93673342  0.65539057  0.68139844     0.01200
F1564       F  0.96007460  0.64726562  0.69368830    -0.13100
F1565       F  0.93800301  0.61399894  0.65687603    -0.13600
C1566       C  0.92798063  0.65587576  0.69207851     0.16200
C1567       C  0.92352811  0.66798535  0.69689089     0.25600
C1568       C  0.92789163  0.67978735  0.69113399    -0.40700
C1569       C  0.93615313  0.67922169  0.68001630     0.32500
C1570       C  0.94055625  0.66710285  0.67520485     0.14200
F1571       F  0.92435530  0.64463478  0.69830522    -0.13100
F1572       F  0.94025217  0.69043644  0.67402843    -0.13600
F1573       F  0.91581132  0.66817036  0.70779426    -0.15900
F1574       F  0.94905582  0.66681358  0.66489837    -0.14400
F1575       F  0.92664610  0.63790701  0.66185918    -0.14400
F1576       F  0.97178573  0.62386019  0.68846380    -0.15900
C1577       C  0.99174916  0.77863918  0.73984039     0.14200
C1578       C  0.00262458  0.77007539  0.73980288     0.01200
C1579       C  0.00049877  0.75647785  0.73913121     0.16100
C1580       C  0.98774522  0.75147022  0.73809895     0.25600
C1581       C  0.97682161  0.75998112  0.73764402    -0.40800
C1582       C  0.97889809  0.77361761  0.73888763     0.32600
C1583       C  0.01624818  0.77518308  0.73914876     0.01200
F1584       F  0.01086237  0.74805818  0.73881621    -0.13100
F1585       F  0.96859440  0.78209929  0.73842206    -0.13600
C1586       C  0.02511158  0.77328073  0.74958807     0.16200
C1587       C  0.03828173  0.77735099  0.74844817     0.25600
C1588       C  0.04281426  0.78322783  0.73673834    -0.40700
C1589       C  0.03388786  0.78468472  0.72617153     0.32500
C1590       C  0.02075337  0.78088191  0.72745638     0.14200
F1591       F  0.02095967  0.76752578  0.76089738    -0.13100
F1592       F  0.03790337  0.78933594  0.71432080    -0.13600
F1593       F  0.04646188  0.77575923  0.75887226    -0.15900
F1594       F  0.01249940  0.78233034  0.71704868    -0.14400
F1595       F  0.99362257  0.79185314  0.74041884    -0.14400
F1596       F  0.98610017  0.73823527  0.73739874    -0.15900
C1597       C  0.01059922  0.49911320  0.91800072     0.14200
C1598       C  0.00866483  0.51258796  0.92042410     0.01200
C1599       C  0.00162391  0.52009212  0.91123136     0.16100
C1600       C  0.99660242  0.51425358  0.89977482     0.25600
C1601       C  0.99836820  0.50070341  0.89736003    -0.40800
C1602       C  0.00541268  0.49319490  0.90662474     0.32600
C1603       C  0.01399914  0.51890875  0.93249264     0.01200
F1604       F  0.99970354  0.53314246  0.91333029    -0.13100
F1605       F  0.00765293  0.48021181  0.90446238    -0.13600
C1606       C  0.02735438  0.52241271  0.93325947     0.16200
C1607       C  0.03229897  0.52880036  0.94446516     0.25600
C1608       C  0.02396080  0.53182681  0.95513776    -0.40700
C1609       C  0.01056411  0.52830133  0.95431932     0.32500
C1610       C  0.00565176  0.52188016  0.94311204     0.14200
F1611       F  0.03555165  0.51987347  0.92301777    -0.13100
F1612       F  0.00227442  0.53084001  0.96448739    -0.13600
F1613       F  0.04517795  0.53237759  0.94472761    -0.15900
F1614       F  0.99273667  0.51846478  0.94264019    -0.14400
F1615       F  0.01751209  0.49169135  0.92667330    -0.14400
F1616       F  0.98974553  0.52183132  0.89119306    -0.15900
C1617       C  0.26329615  0.77624654  0.16630014     0.14200
C1618       C  0.25484123  0.77313948  0.17672705     0.01200
C1619       C  0.24126741  0.77515740  0.17529154     0.16100
C1620       C  0.23614506  0.77996014  0.16342360     0.25600
C1621       C  0.24457839  0.78300046  0.15279096    -0.40800
C1622       C  0.25827479  0.78125278  0.15451214     0.32600
C1623       C  0.26027132  0.76773622  0.18907489     0.01200
F1624       F  0.23294678  0.77221935  0.18532612    -0.13100
F1625       F  0.26693654  0.78463977  0.14493498    -0.13600
C1626       C  0.26244350  0.77598669  0.19994001     0.16200
C1627       C  0.26816108  0.77099264  0.21142747     0.25600
C1628       C  0.27169485  0.75763570  0.21223239    -0.40700
C1629       C  0.26939978  0.74937061  0.20135523     0.32500
C1630       C  0.26377433  0.75440502  0.18984829     0.14200
F1631       F  0.25922008  0.78892597  0.19931378    -0.13100
F1632       F  0.27300713  0.73651808  0.20173099    -0.13600
F1633       F  0.27015748  0.77916692  0.22181107    -0.15900
F1634       F  0.26185185  0.74630944  0.17939087    -0.14400
F1635       F  0.27648597  0.77450371  0.16759574    -0.14400
F1636       F  0.22290085  0.78118793  0.16228355    -0.15900
C1637       C  0.27494827  0.77756145  0.84526249     0.14200
C1638       C  0.26409419  0.76896623  0.84562204     0.01200
C1639       C  0.25939150  0.76481266  0.85795492     0.16100
C1640       C  0.26561628  0.76881991  0.86962265     0.25600
C1641       C  0.27662575  0.77734463  0.86932076    -0.40800
C1642       C  0.28104924  0.78178915  0.85691439     0.32600
C1643       C  0.25792070  0.76409798  0.83315916     0.01200
F1644       F  0.24865340  0.75688439  0.85873732    -0.13100
F1645       F  0.29118239  0.79042724  0.85593282    -0.13600
C1646       C  0.25664942  0.75051599  0.83074639     0.16200
C1647       C  0.25108443  0.74588496  0.81898260     0.25600
C1648       C  0.24685264  0.75471030  0.80915972    -0.40700
C1649       C  0.24814243  0.76833416  0.81160370     0.32500
C1650       C  0.25348276  0.77294725  0.82348938     0.14200
F1651       F  0.26102406  0.74166053  0.83972037    -0.13100
F1652       F  0.24450607  0.77725845  0.80237014    -0.13600
F1653       F  0.24958519  0.73271399  0.81736047    -0.15900
F1654       F  0.25418489  0.78612003  0.82560481    -0.14400
F1655       F  0.27988090  0.78168295  0.83355512    -0.14400
F1656       F  0.26096858  0.76398670  0.88115478    -0.15900
C1657       C  0.26060459  0.79289561  0.99375251     0.14200
C1658       C  0.26769455  0.78738520  0.00429010     0.01200
C1659       C  0.27986709  0.78135698  0.00177808     0.16100
C1660       C  0.28503116  0.78111503  0.98903023     0.25600
C1661       C  0.27808810  0.78684205  0.97851457    -0.40800
C1662       C  0.26569711  0.79250933  0.98094442     0.32600
C1663       C  0.26224036  0.78754874  0.01782898     0.01200
F1664       F  0.28666749  0.77550560  0.01166503    -0.13100
F1665       F  0.25876422  0.79816825  0.97104184    -0.13600
C1666       C  0.24994827  0.78177037  0.02036588     0.16200
C1667       C  0.24467097  0.78193211  0.03304331     0.25600
C1668       C  0.25160577  0.78781785  0.04349382    -0.40700
C1669       C  0.26408014  0.79330836  0.04106594     0.32500
C1670       C  0.26931036  0.79327551  0.02829473     0.14200
F1671       F  0.24307388  0.77585317  0.01054883    -0.13100
F1672       F  0.27090268  0.79927826  0.05088580    -0.13600
F1673       F  0.23277035  0.77620564  0.03512470    -0.15900
F1674       F  0.28106031  0.79924693  0.02605013    -0.14400
F1675       F  0.24890931  0.79898151  0.99593521    -0.14400
F1676       F  0.29673801  0.77503609  0.98692086    -0.15900
C1677       C  0.99570684  0.94661961  0.99642817     0.14200
C1678       C  0.00891644  0.94572283  0.00056850     0.01200
C1679       C  0.01678433  0.95714704  0.00017422     0.16100
C1680       C  0.01157690  0.96915192  0.99575204     0.25600
C1681       C  0.99836469  0.97003511  0.99171919    -0.40800
C1682       C  0.99049331  0.95863930  0.99209156     0.32600
C1683       C  0.01450901  0.93290044  0.00515993     0.01200
F1684       F  0.02961100  0.95663935  0.00388147    -0.13100
F1685       F  0.97776008  0.95911554  0.98805776    -0.13600
C1686       C  0.01387943  0.92163676  0.99711511     0.16200
C1687       C  0.01917542  0.90962245  0.00135925     0.25600
C1688       C  0.02539511  0.90857542  0.01371661    -0.40700
C1689       C  0.02604015  0.91985052  0.02176140     0.32500
C1690       C  0.02058844  0.93183498  0.01757043     0.14200
F1691       F  0.00840690  0.92233113  0.98495097    -0.13100
F1692       F  0.03155007  0.91919145  0.03390411    -0.13600
F1693       F  0.01855975  0.89910450  0.99314401    -0.15900
F1694       F  0.02096850  0.94234923  0.02580733    -0.14400
F1695       F  0.98775463  0.93588339  0.99678048    -0.14400
F1696       F  0.01938323  0.97999707  0.99564700    -0.15900
C1697       C  0.11916667  0.84750079  0.07902492     0.14200
C1698       C  0.12724830  0.83799518  0.07301107     0.01200
C1699       C  0.12303055  0.83209657  0.06122921     0.16100
C1700       C  0.11096823  0.83553924  0.05559880     0.25600
C1701       C  0.10285145  0.84504372  0.06155724    -0.40800
C1702       C  0.10708147  0.85106426  0.07329053     0.32600
C1703       C  0.14028431  0.83438626  0.07861029     0.01200
F1704       F  0.13057543  0.82284537  0.05522097    -0.13100
F1705       F  0.09932932  0.86005142  0.07941321    -0.13600
C1706       C  0.14135799  0.82800836  0.09085120     0.16200
C1707       C  0.15361385  0.82331062  0.09525730     0.25600
C1708       C  0.16496590  0.82488275  0.08744696    -0.40700
C1709       C  0.16390219  0.83189445  0.07552963     0.32500
C1710       C  0.15172002  0.83652343  0.07116388     0.14200
F1711       F  0.13043606  0.82570789  0.09819769    -0.13100
F1712       F  0.17468248  0.83426380  0.06799434    -0.13600
F1713       F  0.15420785  0.81656487  0.10675450    -0.15900
F1714       F  0.15103777  0.84293423  0.05946991    -0.14400
F1715       F  0.12305617  0.85342196  0.09035076    -0.14400
F1716       F  0.10729454  0.82968117  0.04415925    -0.15900
C1717       C  0.99464900  0.60440513  0.01365719     0.14200
C1718       C  0.00149462  0.60378215  0.00161344     0.01200
C1719       C  0.00156096  0.61496762  0.99348123     0.16100
C1720       C  0.99517383  0.62656253  0.99736456     0.25600
C1721       C  0.98838378  0.62726577  0.00944782    -0.40800
C1722       C  0.98811459  0.61598541  0.01750441     0.32600
C1723       C  0.00853094  0.59153741  0.99743245     0.01200
F1724       F  0.00759201  0.61458048  0.98156529    -0.13100
F1725       F  0.98191283  0.61627122  0.02933051    -0.13600
C1726       C  0.00174047  0.57951520  0.99623219     0.16200
C1727       C  0.00822425  0.56818549  0.99170350     0.25600
C1728       C  0.02167248  0.56856963  0.98833887    -0.40700
C1729       C  0.02853135  0.58052711  0.98975623     0.32500
C1730       C  0.02202939  0.59188225  0.99422047     0.14200
F1731       F  0.98870843  0.57880819  0.99911319    -0.13100
F1732       F  0.04145748  0.58131735  0.98644566    -0.13600
F1733       F  0.00136400  0.55676096  0.99069477    -0.15900
F1734       F  0.02895215  0.60324831  0.99545647    -0.14400
F1735       F  0.99456817  0.59388909  0.02187630    -0.14400
F1736       F  0.99532963  0.63699400  0.98904635    -0.15900
C1737       C  0.98554036  0.76053162  0.01185936     0.14200
C1738       C  0.99926511  0.76187233  0.01251550     0.01200
C1739       C  0.00716186  0.75052334  0.01245387     0.16100
C1740       C  0.00140781  0.73800459  0.01252134     0.25600
C1741       C  0.98761050  0.73661988  0.01259229    -0.40800
C1742       C  0.97975938  0.74804104  0.01184571     0.32600
C1743       C  0.00527237  0.77497436  0.01471837     0.01200
F1744       F  0.02048381  0.75159530  0.01280646    -0.13100
F1745       F  0.96643464  0.74717355  0.01132045    -0.13600
C1746       C  0.01214490  0.77737309  0.02644806     0.16200
C1747       C  0.01783868  0.78963919  0.02883489     0.25600
C1748       C  0.01689214  0.79979771  0.01946702    -0.40700
C1749       C  0.00967364  0.79751416  0.00784907     0.32500
C1750       C  0.00389137  0.78518708  0.00550757     0.14200
F1751       F  0.01312723  0.76784798  0.03575412    -0.13100
F1752       F  0.00859753  0.80702136  0.99855113    -0.13600
F1753       F  0.02400489  0.79163788  0.04051351    -0.15900
F1754       F  0.99721393  0.78311758  0.99412299    -0.14400
F1755       F  0.97769135  0.77133518  0.01195834    -0.14400
F1756       F  0.00936623  0.72732784  0.01336879    -0.15900
C1757       C  0.39484171  0.85618078  0.94096765     0.14200
C1758       C  0.39412188  0.84870701  0.92934264     0.01200
C1759       C  0.40467663  0.84905205  0.92043298     0.16100
C1760       C  0.41622310  0.85586492  0.92362859     0.25600
C1761       C  0.41731845  0.86255824  0.93570666    -0.40800
C1762       C  0.40631304  0.86317078  0.94407923     0.32600
C1763       C  0.38300248  0.83951170  0.92721154     0.01200
F1764       F  0.40416458  0.84199806  0.90909553    -0.13100
F1765       F  0.40705522  0.86949619  0.95582413    -0.13600
C1766       C  0.37406843  0.84138024  0.91685073     0.16200
C1767       C  0.36343447  0.83273266  0.91513912     0.25600
C1768       C  0.36161258  0.82202910  0.92375048    -0.40700
C1769       C  0.37086814  0.81997064  0.93386396     0.32500
C1770       C  0.38142540  0.82864575  0.93558314     0.14200
F1771       F  0.37541583  0.85182846  0.90865726    -0.13100
F1772       F  0.36978944  0.80946845  0.94203608    -0.13600
F1773       F  0.35458957  0.83522803  0.90546275    -0.15900
F1774       F  0.39020662  0.82639927  0.94540166    -0.14400
F1775       F  0.38467014  0.85612453  0.94963546    -0.14400
F1776       F  0.42663248  0.85532465  0.91525875    -0.15900
C1777       C  0.50462317  0.62260181  0.01335985     0.14200
C1778       C  0.50564822  0.61091943  0.00602654     0.01200
C1779       C  0.51189815  0.61128396  0.99369174     0.16100
C1780       C  0.51696972  0.62312667  0.98874096     0.25600
C1781       C  0.51593112  0.63486880  0.99606264    -0.40800
C1782       C  0.50975333  0.63443287  0.00847270     0.32600
C1783       C  0.50010518  0.59839603  0.01121097     0.01200
F1784       F  0.51279962  0.60020140  0.98628245    -0.13100
F1785       F  0.50903016  0.64537108  0.01610612    -0.13600
C1786       C  0.48651225  0.59715159  0.01346051     0.16200
C1787       C  0.48124121  0.58537408  0.01832984     0.25600
C1788       C  0.48946753  0.57455834  0.02111887    -0.40700
C1789       C  0.50310892  0.57586230  0.01890408     0.32500
C1790       C  0.50835459  0.58764821  0.01396709     0.14200
F1791       F  0.47829717  0.60732755  0.01076988    -0.13100
F1792       F  0.51134775  0.56561974  0.02121993    -0.13600
F1793       F  0.46807926  0.58464297  0.02054625    -0.15900
F1794       F  0.52154093  0.58863300  0.01200701    -0.14400
F1795       F  0.49885563  0.62249635  0.02540969    -0.14400
F1796       F  0.52252038  0.62314708  0.97659233    -0.15900
C1797       C  0.50415944  0.79486284  0.99460562     0.14200
C1798       C  0.49754584  0.78403222  0.98902434     0.01200
C1799       C  0.48588287  0.78627790  0.98192766     0.16100
C1800       C  0.48115978  0.79905534  0.98011000     0.25600
C1801       C  0.48821387  0.80997698  0.98496992    -0.40800
C1802       C  0.49966273  0.80770143  0.99244786     0.32600
C1803       C  0.50335472  0.77059295  0.98951680     0.01200
F1804       F  0.47933474  0.77614058  0.97617710    -0.13100
F1805       F  0.50692470  0.81787858  0.99715502    -0.13600
C1806       C  0.49573919  0.75960914  0.99317663     0.16200
C1807       C  0.50073929  0.74682047  0.99178965     0.25600
C1808       C  0.51362750  0.74476058  0.98705425    -0.40700
C1809       C  0.52154388  0.75587592  0.98442423     0.32500
C1810       C  0.51637760  0.76856471  0.98532902     0.14200
F1811       F  0.48332561  0.76124579  0.99785594    -0.13100
F1812       F  0.53435740  0.75458514  0.98088604    -0.13600
F1813       F  0.49270587  0.73651926  0.99453997    -0.15900
F1814       F  0.52398964  0.77885049  0.98146683    -0.14400
F1815       F  0.51517582  0.79303857  0.00194037    -0.14400
F1816       F  0.46966198  0.80066580  0.97351274    -0.15900
C1817       C  0.76425692  0.78177993  0.19204615     0.14200
C1818       C  0.75689941  0.78019322  0.18041597     0.01200
C1819       C  0.74346163  0.78352478  0.18050568     0.16100
C1820       C  0.73751911  0.78845033  0.19192206     0.25600
C1821       C  0.74489561  0.79021730  0.20351443    -0.40800
C1822       C  0.75831973  0.78678482  0.20347525     0.32600
C1823       C  0.76313645  0.77515131  0.16813808     0.01200
F1824       F  0.73602889  0.78186301  0.16952699    -0.13100
F1825       F  0.76562710  0.78804845  0.21458650    -0.13600
C1826       C  0.76909127  0.76267174  0.16779897     0.16200
C1827       C  0.77435018  0.75770360  0.15603224     0.25600
C1828       C  0.77369138  0.76508975  0.14431953    -0.40700
C1829       C  0.76787968  0.77766316  0.14474616     0.32500
C1830       C  0.76274111  0.78265175  0.15652988     0.14200
F1831       F  0.76940197  0.75508053  0.17877426    -0.13100
F1832       F  0.76739163  0.78529393  0.13380963    -0.13600
F1833       F  0.77956928  0.74541985  0.15601375    -0.15900
F1834       F  0.75746633  0.79491936  0.15663935    -0.14400
F1835       F  0.77725223  0.77868432  0.19227801    -0.14400
F1836       F  0.72457202  0.79174401  0.19156644    -0.15900
C1837       C  0.86616835  0.69671000  0.08765737     0.14200
C1838       C  0.86998429  0.69728278  0.07434409     0.01200
C1839       C  0.86158489  0.70341675  0.06526590     0.16100
C1840       C  0.84950540  0.70857653  0.06927357     0.25600
C1841       C  0.84547075  0.70775918  0.08252419    -0.40800
C1842       C  0.85402042  0.70193119  0.09171919     0.32600
C1843       C  0.88288390  0.69205064  0.06978996     0.01200
F1844       F  0.86526155  0.70476842  0.05249027    -0.13100
F1845       F  0.85047797  0.70095555  0.10455742    -0.13600
C1846       C  0.88348651  0.68304523  0.05925210     0.16200
C1847       C  0.89561712  0.67958916  0.05365004     0.25600
C1848       C  0.90734596  0.68512310  0.05844746    -0.40700
C1849       C  0.90679019  0.69366260  0.06934787     0.32500
C1850       C  0.89468724  0.69703490  0.07501515     0.14200
F1851       F  0.87225663  0.67796146  0.05407425    -0.13100
F1852       F  0.91798611  0.69902937  0.07430721    -0.13600
F1853       F  0.89580725  0.67158889  0.04295062    -0.15900
F1854       F  0.89446188  0.70580101  0.08510025    -0.14400
F1855       F  0.87409324  0.69088831  0.09668143    -0.14400
F1856       F  0.84199161  0.71480563  0.06017112    -0.15900
C1857       C  0.75203047  0.77720614  0.85075093     0.14200
C1858       C  0.75014692  0.77042246  0.83883081     0.01200
C1859       C  0.74178296  0.75935718  0.83871941     0.16100
C1860       C  0.73551787  0.75515046  0.85030258     0.25600
C1861       C  0.73762667  0.76181403  0.86227818    -0.40800
C1862       C  0.74595803  0.77290886  0.86232743     0.32600
C1863       C  0.75710708  0.77485694  0.82667745     0.01200
F1864       F  0.73998614  0.75236044  0.82747767    -0.13100
F1865       F  0.74799907  0.77989206  0.87353167    -0.13600
C1866       C  0.77083159  0.77679783  0.82681389     0.16200
C1867       C  0.77738375  0.78154472  0.81567989     0.25600
C1868       C  0.77044985  0.78415600  0.80397838    -0.40700
C1869       C  0.75673583  0.78209612  0.80376529     0.32500
C1870       C  0.75012435  0.77756535  0.81501959     0.14200
F1871       F  0.77796798  0.77399559  0.83774964    -0.13100
F1872       F  0.74974696  0.78427404  0.79259805    -0.13600
F1873       F  0.79052737  0.78387658  0.81645297    -0.15900
F1874       F  0.73684676  0.77609149  0.81459674    -0.14400
F1875       F  0.75961832  0.78820469  0.85116522    -0.14400
F1876       F  0.72779558  0.74425578  0.84987690    -0.15900
C1877       C  0.63647062  0.71702331  0.93975767     0.14200
C1878       C  0.63031208  0.70847024  0.93083650     0.01200
C1879       C  0.63599092  0.70659947  0.91834490     0.16100
C1880       C  0.64787333  0.71285391  0.91500773     0.25600
C1881       C  0.65431065  0.72109430  0.92413959    -0.40800
C1882       C  0.64823051  0.72333070  0.93644091     0.32600
C1883       C  0.61760623  0.70216618  0.93444480     0.01200
F1884       F  0.63015815  0.69848259  0.90947158    -0.13100
F1885       F  0.65342563  0.73194188  0.94523452    -0.13600
C1886       C  0.60621512  0.70486970  0.92710512     0.16200
C1887       C  0.59392335  0.70042437  0.93141069     0.25600
C1888       C  0.59276473  0.69318085  0.94312772    -0.40700
C1889       C  0.60420432  0.68988259  0.95015426     0.32500
C1890       C  0.61653754  0.69438251  0.94586581     0.14200
F1891       F  0.60687375  0.71252871  0.91619433    -0.13100
F1892       F  0.60335364  0.68313987  0.96164735    -0.13600
F1893       F  0.58303990  0.70355799  0.92432829    -0.15900
F1894       F  0.62739284  0.69153628  0.95311328    -0.14400
F1895       F  0.63089563  0.71955609  0.95164108    -0.14400
F1896       F  0.65321465  0.71050604  0.90300043    -0.15900
C1897       C  0.76163442  0.75468403  0.98456256     0.14200
C1898       C  0.75428289  0.75846626  0.99565308     0.01200
C1899       C  0.74119586  0.76253869  0.99401921     0.16100
C1900       C  0.73528060  0.76206924  0.98159879     0.25600
C1901       C  0.74240102  0.75760593  0.97056653    -0.40800
C1902       C  0.75577714  0.75434185  0.97209182     0.32600
C1903       C  0.75958482  0.75637438  0.00904720     0.01200
F1904       F  0.73390690  0.76621474  0.00459998    -0.13100
F1905       F  0.76294413  0.74994047  0.96171309    -0.13600
C1906       C  0.76197226  0.76694519  0.01764682     0.16200
C1907       C  0.76634289  0.76460236  0.03054087     0.25600
C1908       C  0.76825998  0.75162933  0.03502562    -0.40700
C1909       C  0.76576937  0.74110998  0.02632989     0.32500
C1910       C  0.76154080  0.74347776  0.01349571     0.14200
F1911       F  0.76018969  0.77950693  0.01350349    -0.13100
F1912       F  0.76694741  0.72844065  0.03035607    -0.13600
F1913       F  0.76900458  0.77500664  0.03848807    -0.15900
F1914       F  0.75892786  0.73310157  0.00548018    -0.14400
F1915       F  0.77433750  0.75077396  0.98593049    -0.14400
F1916       F  0.72249099  0.76574560  0.98041704    -0.15900
C1917       C  0.49870732  0.94062380  0.99365300     0.14200
C1918       C  0.50369980  0.94083351  0.00655120     0.01200
C1919       C  0.50212964  0.92965864  0.01452058     0.16100
C1920       C  0.49569003  0.91847633  0.00971274     0.25600
C1921       C  0.49058350  0.91825172  0.99683191    -0.40800
C1922       C  0.49216377  0.92946522  0.98884740     0.32600
C1923       C  0.51046859  0.95268997  0.01178632     0.01200
F1924       F  0.50659470  0.92968050  0.02711067    -0.13100
F1925       F  0.48778421  0.92950183  0.97623405    -0.13600
C1926       C  0.50388784  0.96484980  0.01239339     0.16200
C1927       C  0.51011612  0.97590321  0.01781171     0.25600
C1928       C  0.52307370  0.97500897  0.02257526    -0.40700
C1929       C  0.52967918  0.96287806  0.02188622     0.32500
C1930       C  0.52343103  0.95181761  0.01656554     0.14200
F1931       F  0.49132438  0.96594666  0.00797824    -0.13100
F1932       F  0.54211568  0.96168668  0.02663273    -0.13600
F1933       F  0.50356612  0.98752933  0.01824803    -0.15900
F1934       F  0.53008085  0.94025060  0.01599154    -0.14400
F1935       F  0.50044454  0.95112963  0.98559852    -0.14400
F1936       F  0.49412108  0.90800999  0.01784340    -0.15900
C1937       C  0.95166354  0.01131685  0.01601003     0.14200
C1938       C  0.94050806  0.01448259  0.00844442     0.01200
C1939       C  0.94112177  0.01296020  0.99470828     0.16100
C1940       C  0.95257022  0.00826361  0.98864281     0.25600
C1941       C  0.96375827  0.00505188  0.99615832    -0.40800
C1942       C  0.96317845  0.00664208  0.00993216     0.32600
C1943       C  0.92813697  0.01924988  0.01473035     0.01200
F1944       F  0.93060194  0.01613634  0.98711573    -0.13100
F1945       F  0.97382723  0.00385475  0.01749743    -0.13600
C1946       C  0.92793224  0.03101103  0.02202545     0.16200
C1947       C  0.91604695  0.03593098  0.02709445     0.25600
C1948       C  0.90409453  0.02917155  0.02497463    -0.40700
C1949       C  0.90442239  0.01721351  0.01793981     0.32500
C1950       C  0.91629157  0.01232607  0.01290614     0.14200
F1951       F  0.93918054  0.03801103  0.02381532    -0.13100
F1952       F  0.89328784  0.01005438  0.01610836    -0.13600
F1953       F  0.91619919  0.04760698  0.03357714    -0.15900
F1954       F  0.91623378  0.00072679  0.00626912    -0.14400
F1955       F  0.95132384  0.01252484  0.02930971    -0.14400
F1956       F  0.95258176  0.00652600  0.97539870    -0.15900
C1957       C  0.60783767  0.01092562  0.00207383     0.14200
C1958       C  0.59721575  0.01951413  0.00423688     0.01200
C1959       C  0.59849886  0.03278940  0.00055933     0.16100
C1960       C  0.61013868  0.03736103  0.99469198     0.25600
C1961       C  0.62076565  0.02875475  0.99248228    -0.40800
C1962       C  0.61952326  0.01551304  0.99633196     0.32600
C1963       C  0.58481369  0.01466511  0.01034552     0.01200
F1964       F  0.58854761  0.04138857  0.00290547    -0.13100
F1965       F  0.62947705  0.00688632  0.99413719    -0.13600
C1966       C  0.58483632  0.00949549  0.02318488     0.16200
C1967       C  0.57306469  0.00533726  0.02908823     0.25600
C1968       C  0.56110242  0.00611581  0.02219445    -0.40700
C1969       C  0.56112770  0.01093925  0.00922863     0.32500
C1970       C  0.57285937  0.01525946  0.00339001     0.14200
F1971       F  0.59625363  0.00862700  0.03006381    -0.13100
F1972       F  0.54973632  0.01159493  0.00227266    -0.13600
F1973       F  0.57336966  0.00027715  0.04143764    -0.15900
F1974       F  0.57259407  0.01984248  0.99085182    -0.14400
F1975       F  0.60677149  0.99800022  0.00524679    -0.14400
F1976       F  0.61116793  0.05029771  0.99155431    -0.15900
C1977       C  0.74642289  0.03244721  0.00646610     0.14200
C1978       C  0.75702263  0.03541992  0.99809102     0.01200
C1979       C  0.75454302  0.03784542  0.98474926     0.16100
C1980       C  0.74163723  0.03802665  0.97996630     0.25600
C1981       C  0.73084396  0.03602107  0.98850613    -0.40800
C1982       C  0.73343058  0.03279574  0.00174677     0.32600
C1983       C  0.77045686  0.03743880  0.00345404     0.01200
F1984       F  0.76466476  0.04038102  0.97639208    -0.13100
F1985       F  0.72341866  0.03079802  0.01035298    -0.13600
C1986       C  0.77795006  0.02688422  0.00830550     0.16200
C1987       C  0.79058556  0.02910212  0.01346910     0.25600
C1988       C  0.79575560  0.04193089  0.01407816    -0.40700
C1989       C  0.78823176  0.05244955  0.00922908     0.32500
C1990       C  0.77577025  0.05020251  0.00383108     0.14200
F1991       F  0.77303241  0.01446830  0.00802461    -0.13100
F1992       F  0.79301575  0.06492074  0.00962534    -0.13600
F1993       F  0.79755354  0.01881958  0.01834983    -0.15900
F1994       F  0.76873417  0.06055216  0.99918203    -0.14400
F1995       F  0.74861054  0.02996379  0.01940005    -0.14400
F1996       F  0.73976650  0.04030268  0.96694722    -0.15900
C1997       C  0.76719887  0.85975902  0.26730973     0.14200
C1998       C  0.75596778  0.85963416  0.25924069     0.01200
C1999       C  0.74874187  0.87130874  0.25775822     0.16100
C2000       C  0.75265460  0.88288929  0.26416966     0.25600
C2001       C  0.76407747  0.88317875  0.27210391    -0.40800
C2002       C  0.77124660  0.87136690  0.27362804     0.32600
C2003       C  0.75166778  0.84732312  0.25249759     0.01200
F2004       F  0.73766422  0.87143580  0.25028568    -0.13100
F2005       F  0.78243270  0.87101968  0.28089721    -0.13600
C2006       C  0.74835442  0.83608181  0.25984057     0.16200
C2007       C  0.74394517  0.82461377  0.25354450     0.25600
C2008       C  0.74269897  0.82413426  0.23973618    -0.40700
C2009       C  0.74614974  0.83536759  0.23238930     0.32500
C2010       C  0.75060221  0.84681704  0.23870285     0.14200
F2011       F  0.74909546  0.83631053  0.27317454    -0.13100
F2012       F  0.74480808  0.83542663  0.21910115    -0.13600
F2013       F  0.74099601  0.81391638  0.26097285    -0.15900
F2014       F  0.75391938  0.85743523  0.23131875    -0.14400
F2015       F  0.77447813  0.84866776  0.26881430    -0.14400
F2016       F  0.74496459  0.89370415  0.26282981    -0.15900
C2017       C  0.76686711  0.18717184  0.24257612     0.14200
C2018       C  0.75547295  0.18684437  0.25042066     0.01200
C2019       C  0.74850931  0.17497725  0.25166914     0.16100
C2020       C  0.75279037  0.16365389  0.24512119     0.25600
C2021       C  0.76424767  0.16390868  0.23726441    -0.40800
C2022       C  0.77120867  0.17584084  0.23604274     0.32600
C2023       C  0.75064729  0.19894839  0.25701213     0.01200
F2024       F  0.73736908  0.17441107  0.25903877    -0.13100
F2025       F  0.78249617  0.17649498  0.22893336    -0.13600
C2026       C  0.74744150  0.21010640  0.24952545     0.16200
C2027       C  0.74273653  0.22150733  0.25564255     0.25600
C2028       C  0.74113384  0.22197280  0.26939643    -0.40700
C2029       C  0.74423660  0.21073957  0.27687255     0.32500
C2030       C  0.74898965  0.19935571  0.27074170     0.14200
F2031       F  0.74868672  0.20988277  0.23622673    -0.13100
F2032       F  0.74238801  0.21068022  0.29010316    -0.13600
F2033       F  0.73996210  0.23217617  0.24811930    -0.15900
F2034       F  0.75210701  0.18876084  0.27823802    -0.14400
F2035       F  0.77399519  0.19842535  0.24150839    -0.14400
F2036       F  0.74548508  0.15252650  0.24625778    -0.15900
C2037       C  0.82509803  0.08195669  0.11911415     0.14200
C2038       C  0.83460227  0.08905016  0.12623082     0.01200
C2039       C  0.84744553  0.09002325  0.12113890     0.16100
C2040       C  0.85062950  0.08430193  0.10897754     0.25600
C2041       C  0.84098790  0.07757145  0.10162088    -0.40800
C2042       C  0.82824064  0.07626091  0.10698491     0.32600
C2043       C  0.83107236  0.09516723  0.13905381     0.01200
F2044       F  0.85681805  0.09687098  0.12776476    -0.13100
F2045       F  0.81881780  0.06920598  0.10065312    -0.13600
C2046       C  0.83771513  0.09153393  0.15060657     0.16200
C2047       C  0.83358582  0.09633597  0.16284105     0.25600
C2048       C  0.82263781  0.10480025  0.16380895    -0.40700
C2049       C  0.81639955  0.10894156  0.15216202     0.32500
C2050       C  0.82057871  0.10415876  0.13991657     0.14200
F2051       F  0.84783831  0.08283493  0.15011925    -0.13100
F2052       F  0.80577472  0.11700961  0.15261820    -0.13600
F2053       F  0.84022013  0.09253191  0.17378523    -0.15900
F2054       F  0.81417792  0.10810204  0.12888206    -0.14400
F2055       F  0.81276224  0.08036098  0.12402578    -0.14400
F2056       F  0.86301159  0.08581843  0.10420005    -0.15900
C2057       C  0.76746797  0.00861369  0.25460916     0.14200
C2058       C  0.77202801  0.01912893  0.26234866     0.01200
C2059       C  0.77572633  0.01681647  0.27540895     0.16100
C2060       C  0.77560620  0.00407701  0.28049126     0.25600
C2061       C  0.77209716  0.99328542  0.27247910    -0.40800
C2062       C  0.76751239  0.99574689  0.25962597     0.32600
C2063       C  0.77446878  0.03222175  0.25654124     0.01200
F2064       F  0.77999803  0.02689447  0.28308891    -0.13100
F2065       F  0.76397439  0.98567745  0.25159664    -0.13600
C2066       C  0.76408918  0.04087633  0.25373711     0.16200
C2067       C  0.76673592  0.05348117  0.24879173     0.25600
C2068       C  0.77981753  0.05750979  0.24646932    -0.40700
C2069       C  0.79015684  0.04880537  0.24941727     0.32500
C2070       C  0.78749400  0.03629402  0.25438228     0.14200
F2071       F  0.75143644  0.03716229  0.25591795    -0.13100
F2072       F  0.80290059  0.05251377  0.24781211    -0.13600
F2073       F  0.75650526  0.06157445  0.24595709    -0.15900
F2074       F  0.79767207  0.02808793  0.25711020    -0.14400
F2075       F  0.76379756  0.01069633  0.24194141    -0.14400
F2076       F  0.77924473  0.00231146  0.29321471    -0.15900
C2077       C  0.95229197  0.02893096  0.49950926     0.14200
C2078       C  0.94117133  0.02479760  0.50666136     0.01200
C2079       C  0.94153960  0.02549239  0.52049862     0.16100
C2080       C  0.95269515  0.03035856  0.52701269     0.25600
C2081       C  0.96387949  0.03437596  0.51985909    -0.40800
C2082       C  0.96355845  0.03349667  0.50602082     0.32600
C2083       C  0.92923543  0.01976351  0.49971471     0.01200
F2084       F  0.93112612  0.02130985  0.52775903    -0.13100
F2085       F  0.97425426  0.03686874  0.49874931    -0.13600
C2086       C  0.93023394  0.00956196  0.49039713     0.16200
C2087       C  0.91900082  0.00468762  0.48402529     0.25600
C2088       C  0.90641844  0.00979210  0.48691753    -0.40700
C2089       C  0.90549098  0.02018339  0.49609939     0.32500
C2090       C  0.91674886  0.02510906  0.50237088     0.14200
F2091       F  0.94208389  0.00400097  0.48771821    -0.13100
F2092       F  0.89373594  0.02590371  0.49881550    -0.13600
F2093       F  0.92048850  0.99464047  0.47536102    -0.15900
F2094       F  0.91545370  0.03533303  0.51088115    -0.14400
F2095       F  0.95218449  0.02877428  0.48615370    -0.14400
F2096       F  0.95240777  0.03143740  0.54032412    -0.15900
C2097       C  0.84095977  0.94321204  0.39011913     0.14200
C2098       C  0.84601786  0.94995821  0.37919754     0.01200
C2099       C  0.85505982  0.96025790  0.38123518     0.16100
C2100       C  0.85848462  0.96415864  0.39403774     0.25600
C2101       C  0.85281412  0.95787530  0.40500710    -0.40800
C2102       C  0.84433318  0.94709425  0.40287523     0.32600
C2103       C  0.84052164  0.94727414  0.36593787     0.01200
F2104       F  0.86017780  0.96685702  0.37081207    -0.13100
F2105       F  0.83902122  0.94045123  0.41317050    -0.13600
C2106       C  0.83299097  0.95698453  0.35968685     0.16200
C2107       C  0.82635452  0.95421087  0.34798321     0.25600
C2108       C  0.82716926  0.94163328  0.34215029    -0.40700
C2109       C  0.83494972  0.93196368  0.34827627     0.32500
C2110       C  0.84155230  0.93476158  0.36009588     0.14200
F2111       F  0.83147873  0.96901549  0.36530820    -0.13100
F2112       F  0.83625890  0.91986161  0.34278065    -0.13600
F2113       F  0.81853190  0.96369953  0.34280408    -0.15900
F2114       F  0.84888857  0.92524590  0.36590252    -0.14400
F2115       F  0.83207566  0.93336034  0.38844830    -0.14400
F2116       F  0.86663189  0.97462411  0.39565278    -0.15900
C2117       C  0.57784352  0.01960878  0.49645009     0.14200
C2118       C  0.58790301  0.02802348  0.50081659     0.01200
C2119       C  0.58607930  0.04168046  0.49992277     0.16100
C2120       C  0.57446451  0.04687221  0.49455651     0.25600
C2121       C  0.56427673  0.03848492  0.49018196    -0.40800
C2122       C  0.56609317  0.02475825  0.49133840     0.32600
C2123       C  0.60023451  0.02256588  0.50648004     0.01200
F2124       F  0.59566669  0.05000473  0.50410083    -0.13100
F2125       F  0.55637072  0.01628923  0.48780286    -0.13600
C2126       C  0.61042602  0.01816253  0.49825458     0.16200
C2127       C  0.62211881  0.01313995  0.50363173     0.25600
C2128       C  0.62383835  0.01234253  0.51740496    -0.40700
C2129       C  0.61350497  0.01670648  0.52559039     0.32500
C2130       C  0.60187249  0.02180891  0.52016784     0.14200
F2131       F  0.60907588  0.01881464  0.48498127    -0.13100
F2132       F  0.61478133  0.01645857  0.53887204    -0.13600
F2133       F  0.63162143  0.00880285  0.49530410    -0.15900
F2134       F  0.59217120  0.02607952  0.52830092    -0.14400
F2135       F  0.57936006  0.00636932  0.49728084    -0.14400
F2136       F  0.57338472  0.06011695  0.49328752    -0.15900
C2137       C  0.74770332  0.99492029  0.49357966     0.14200
C2138       C  0.75864514  0.99804445  0.50151099     0.01200
C2139       C  0.75654045  0.00240416  0.51445529     0.16100
C2140       C  0.74379839  0.00325046  0.51951338     0.25600
C2141       C  0.73288108  0.99967933  0.51177210    -0.40800
C2142       C  0.73490228  0.99576204  0.49866775     0.32600
C2143       C  0.77226545  0.99618221  0.49658001     0.01200
F2144       F  0.76687391  0.00527526  0.52243363    -0.13100
F2145       F  0.72458250  0.99203688  0.49103801    -0.13600
C2146       C  0.78144189  0.00655277  0.49701626     0.16200
C2147       C  0.79441281  0.00460860  0.49277773     0.25600
C2148       C  0.79838307  0.99229503  0.48785940    -0.40700
C2149       C  0.78920192  0.98191464  0.48751534     0.32500
C2150       C  0.77630963  0.98382246  0.49189538     0.14200
F2151       F  0.77776534  0.01865187  0.50132190    -0.13100
F2152       F  0.79279015  0.96976493  0.48328137    -0.13600
F2153       F  0.80292703  0.01490319  0.49306247    -0.15900
F2154       F  0.76785638  0.97346519  0.49188323    -0.14400
F2155       F  0.74943904  0.99082589  0.48097911    -0.14400
F2156       F  0.74214190  0.00740130  0.53210768    -0.15900
C2157       C  0.74581277  0.18160157  0.76553982     0.14200
C2158       C  0.75766211  0.18189386  0.75840005     0.01200
C2159       C  0.76529762  0.17040085  0.75762212     0.16100
C2160       C  0.76113271  0.15879125  0.76375160     0.25600
C2161       C  0.74921005  0.15841167  0.77084661    -0.40800
C2162       C  0.74161823  0.16998813  0.77169727     0.32600
C2163       C  0.76210537  0.19409444  0.75166021     0.01200
F2164       F  0.77694926  0.17048657  0.75106775    -0.13100
F2165       F  0.72986255  0.16997839  0.77804368    -0.13600
C2166       C  0.76478808  0.20559899  0.75888200     0.16200
C2167       C  0.76975566  0.21681995  0.75257680     0.25600
C2168       C  0.77205609  0.21677107  0.73892253    -0.40700
C2169       C  0.76904924  0.20535397  0.73166152     0.32500
C2170       C  0.76412696  0.19413726  0.73797256     0.14200
F2171       F  0.76286995  0.20587164  0.77209715    -0.13100
F2172       F  0.77119047  0.20494464  0.71848107    -0.13600
F2173       F  0.77215878  0.22781367  0.75978337    -0.15900
F2174       F  0.76127721  0.18328695  0.73070386    -0.14400
F2175       F  0.73809819  0.19247776  0.76623246    -0.14400
F2176       F  0.76896983  0.14801306  0.76297168    -0.15900
C2177       C  0.69720780  0.10227057  0.87186856     0.14200
C2178       C  0.68585893  0.09450077  0.87333185     0.01200
C2179       C  0.67874416  0.09071266  0.86212896     0.16100
C2180       C  0.68321847  0.09418654  0.84957171     0.25600
C2181       C  0.69483355  0.10161583  0.84802905    -0.40800
C2182       C  0.70161346  0.10590415  0.85932232     0.32600
C2183       C  0.68230024  0.08917156  0.88639032     0.01200
F2184       F  0.66779960  0.08313247  0.86334244    -0.13100
F2185       F  0.71298001  0.11284710  0.85821562    -0.13600
C2186       C  0.67184982  0.09447481  0.89374687     0.16200
C2187       C  0.66888171  0.08944865  0.90627685     0.25600
C2188       C  0.67635916  0.07907820  0.91154501    -0.40700
C2189       C  0.68661489  0.07363695  0.90398199     0.32500
C2190       C  0.68954555  0.07864006  0.89154049     0.14200
F2191       F  0.66478455  0.10471650  0.88892653    -0.13100
F2192       F  0.69376837  0.06335820  0.90861180    -0.13600
F2193       F  0.65914058  0.09507751  0.91348022    -0.15900
F2194       F  0.69950284  0.07319931  0.88447602    -0.14400
F2195       F  0.70429309  0.10590404  0.88260028    -0.14400
F2196       F  0.67630604  0.09010120  0.83889007    -0.15900
C2197       C  0.77501416  0.86434128  0.74827971     0.14200
C2198       C  0.76685025  0.85325202  0.74691071     0.01200
C2199       C  0.75558491  0.85416764  0.73895435     0.16100
C2200       C  0.75240838  0.86601206  0.73263573     0.25600
C2201       C  0.76050043  0.87720900  0.73407031    -0.40800
C2202       C  0.77190342  0.87618380  0.74191152     0.32600
C2203       C  0.77001039  0.84078723  0.75390036     0.01200
F2204       F  0.74743607  0.84365898  0.73760531    -0.13100
F2205       F  0.78022678  0.88655883  0.74319888    -0.13600
C2206       C  0.76963676  0.84022132  0.76770900     0.16200
C2207       C  0.77286640  0.82857362  0.77435114     0.25600
C2208       C  0.77651635  0.81718430  0.76730482    -0.40700
C2209       C  0.77665680  0.81774698  0.75342812     0.32500
C2210       C  0.77345473  0.82942222  0.74682123     0.14200
F2211       F  0.76608014  0.85098494  0.77477733    -0.13100
F2212       F  0.77975345  0.80693513  0.74621327    -0.13600
F2213       F  0.77283029  0.82859675  0.78770562    -0.15900
F2214       F  0.77393953  0.82970238  0.73347668    -0.14400
F2215       F  0.78612635  0.86363008  0.75566494    -0.14400
F2216       F  0.74110422  0.86663166  0.72555456    -0.15900
C2217       C  0.68931040  0.94696803  0.64495876     0.14200
C2218       C  0.69658538  0.94509356  0.63337070     0.01200
C2219       C  0.70821518  0.93760000  0.63386117     0.16100
C2220       C  0.71279561  0.93253873  0.64585625     0.25600
C2221       C  0.70594347  0.93512339  0.65761168    -0.40800
C2222       C  0.69395208  0.94206934  0.65696528     0.32600
C2223       C  0.69260473  0.95181983  0.62102885     0.01200
F2224       F  0.71535083  0.93553780  0.62275513    -0.13100
F2225       F  0.68684586  0.94438193  0.66804423    -0.13600
C2226       C  0.70043939  0.96200576  0.61597575     0.16200
C2227       C  0.69684296  0.96847663  0.60438985     0.25600
C2228       C  0.68534538  0.96482940  0.59748572    -0.40700
C2229       C  0.67734381  0.95480155  0.60271504     0.32500
C2230       C  0.68093087  0.94838451  0.61442103     0.14200
F2231       F  0.71153672  0.96581731  0.62239161    -0.13100
F2232       F  0.66637525  0.95081163  0.59621809    -0.13600
F2233       F  0.70456234  0.97848603  0.60005168    -0.15900
F2234       F  0.67320245  0.93856329  0.61913117    -0.14400
F2235       F  0.67805095  0.95415160  0.64475619    -0.14400
F2236       F  0.72436820  0.92588206  0.64606528    -0.15900
C2237       C  0.75252131  0.03292649  0.75940288     0.14200
C2238       C  0.74185500  0.02512585  0.75532556     0.01200
C2239       C  0.72899754  0.02999904  0.75659867     0.16100
C2240       C  0.72677602  0.04239122  0.76213505     0.25600
C2241       C  0.73740829  0.05024098  0.76626418    -0.40800
C2242       C  0.75032415  0.04546945  0.76474215     0.32600
C2243       C  0.74394549  0.01184970  0.74975556     0.01200
F2244       F  0.71857475  0.02267275  0.75254330    -0.13100
F2245       F  0.76075997  0.05274698  0.76884589    -0.13600
C2246       C  0.74541188  0.00093325  0.75808026     0.16200
C2247       C  0.74576538  0.98816013  0.75284675     0.25600
C2248       C  0.74455163  0.98614697  0.73919703    -0.40700
C2249       C  0.74363462  0.99719419  0.73086881     0.32500
C2250       C  0.74331034  0.00991500  0.73611669     0.14200
F2251       F  0.74588367  0.00263654  0.77131954    -0.13100
F2252       F  0.74296880  0.99568887  0.71761223    -0.13600
F2253       F  0.74646625  0.97776675  0.76118201    -0.15900
F2254       F  0.74203784  0.02036288  0.72790468    -0.14400
F2255       F  0.76502340  0.02836668  0.75823771    -0.14400
F2256       F  0.71422195  0.04683507  0.76323254    -0.15900
C2257       C  0.24236410  0.27411940  0.34137882     0.14200
C2258       C  0.25601196  0.27284876  0.33957551     0.01200
C2259       C  0.26353726  0.26660939  0.34931602     0.16100
C2260       C  0.25752200  0.26182229  0.36077562     0.25600
C2261       C  0.24382458  0.26307820  0.36264177    -0.40800
C2262       C  0.23629984  0.26923270  0.35278231     0.32600
C2263       C  0.26240521  0.27830135  0.32764482     0.01200
F2264       F  0.27672211  0.26513193  0.34769760    -0.13100
F2265       F  0.22315049  0.27096173  0.35439855    -0.13600
C2266       C  0.26794434  0.29096723  0.32789318     0.16200
C2267       C  0.27362690  0.29633185  0.31652255     0.25600
C2268       C  0.27401409  0.28903048  0.30476624    -0.40700
C2269       C  0.26863434  0.27627004  0.30458886     0.32500
C2270       C  0.26282001  0.27097360  0.31592639     0.14200
F2271       F  0.26785663  0.29811326  0.33918210    -0.13100
F2272       F  0.26886581  0.26901900  0.29336560    -0.13600
F2273       F  0.27904841  0.30853289  0.31706221    -0.15900
F2274       F  0.25763531  0.25866886  0.31550102    -0.14400
F2275       F  0.23495485  0.28030138  0.33215653    -0.14400
F2276       F  0.26506812  0.25569051  0.36991983    -0.15900
C2277       C  0.26139596  0.28250916  0.65679478     0.14200
C2278       C  0.26062717  0.27476457  0.66823140     0.01200
C2279       C  0.26524302  0.26172460  0.66776389     0.16100
C2280       C  0.27059289  0.25655607  0.65614521     0.25600
C2281       C  0.27132992  0.26427150  0.64468985    -0.40800
C2282       C  0.26660887  0.27729608  0.64511997     0.32600
C2283       C  0.25486223  0.28014797  0.68060184     0.01200
F2284       F  0.26428295  0.25386756  0.67851244    -0.13100
F2285       F  0.26742326  0.28514914  0.63435649    -0.13600
C2286       C  0.24182821  0.28483448  0.68085295     0.16200
C2287       C  0.23613590  0.28909949  0.69268132     0.25600
C2288       C  0.24339806  0.28889169  0.70445915    -0.40700
C2289       C  0.25657315  0.28467802  0.70413290     0.32500
C2290       C  0.26222552  0.28026367  0.69233628     0.14200
F2291       F  0.23447667  0.28493622  0.66970091    -0.13100
F2292       F  0.26385881  0.28450603  0.71532522    -0.13600
F2293       F  0.22352683  0.29351972  0.69263756    -0.15900
F2294       F  0.27492389  0.27610759  0.69235637    -0.14400
F2295       F  0.25736898  0.29523892  0.65701235    -0.14400
F2296       F  0.27465941  0.24384207  0.65598911    -0.15900
C2297       C  0.27328884  0.25927662  0.51245459     0.14200
C2298       C  0.26038884  0.25469143  0.51053525     0.01200
C2299       C  0.25289221  0.25072830  0.52146228     0.16100
C2300       C  0.25834165  0.25098268  0.53409091     0.25600
C2301       C  0.27140832  0.25514708  0.53597178    -0.40800
C2302       C  0.27878085  0.25944941  0.52506626     0.32600
C2303       C  0.25513172  0.25303114  0.49707035     0.01200
F2304       F  0.24037011  0.24633023  0.51983759    -0.13100
F2305       F  0.29134734  0.26374579  0.52660925    -0.13600
C2306       C  0.25190304  0.24039903  0.49252367     0.16200
C2307       C  0.24713393  0.23859166  0.47978473     0.25600
C2308       C  0.24558886  0.24939332  0.47126484    -0.40700
C2309       C  0.24888190  0.26206269  0.47579647     0.32500
C2310       C  0.25360594  0.26386380  0.48862959     0.14200
F2311       F  0.25368323  0.22973136  0.50035306    -0.13100
F2312       F  0.24712472  0.27273298  0.46798020    -0.13600
F2313       F  0.24440726  0.22617301  0.47567730    -0.15900
F2314       F  0.25646598  0.27619293  0.49291350    -0.14400
F2315       F  0.28075489  0.26305142  0.50203543    -0.14400
F2316       F  0.25109046  0.24644380  0.54434968    -0.15900
C2317       C  0.52532481  0.43327242  0.50038445     0.14200
C2318       C  0.51176038  0.43594108  0.50128777     0.01200
C2319       C  0.50346003  0.42646278  0.50700920     0.16100
C2320       C  0.50854924  0.41442307  0.51143971     0.25600
C2321       C  0.52210324  0.41168071  0.51045779    -0.40800
C2322       C  0.53046345  0.42130823  0.50501085     0.32600
C2323       C  0.50616745  0.44833693  0.49578631     0.01200
F2324       F  0.49033996  0.42876771  0.50805790    -0.13100
F2325       F  0.54355972  0.41896390  0.50376033    -0.13600
C2326       C  0.50653437  0.45067186  0.48217884     0.16200
C2327       C  0.50076771  0.46199470  0.47681279     0.25600
C2328       C  0.49488228  0.47159352  0.48499295    -0.40700
C2329       C  0.49472089  0.46926331  0.49870749     0.32500
C2330       C  0.50011233  0.45768791  0.50398684     0.14200
F2331       F  0.51217487  0.44174113  0.47399634    -0.13100
F2332       F  0.48964747  0.47831687  0.50711722    -0.13600
F2333       F  0.50056190  0.46326892  0.46352376    -0.15900
F2334       F  0.49962084  0.45571098  0.51718465    -0.14400
F2335       F  0.53360460  0.44229417  0.49503579    -0.14400
F2336       F  0.50023242  0.40553508  0.51694228    -0.15900
C2337       C  0.51283783  0.11508197  0.51350437     0.14200
C2338       C  0.50652456  0.10549032  0.50580399     0.01200
C2339       C  0.49311905  0.10710441  0.50273413     0.16100
C2340       C  0.48612717  0.11811578  0.50731868     0.25600
C2341       C  0.49250211  0.12785719  0.51483565    -0.40800
C2342       C  0.50594867  0.12623500  0.51783415     0.32600
C2343       C  0.51403340  0.09411235  0.50045457     0.01200
F2344       F  0.48683841  0.09803311  0.49518973    -0.13100
F2345       F  0.51241065  0.13540933  0.52509474    -0.13600
C2346       C  0.51775865  0.08357996  0.50858879     0.16200
C2347       C  0.52436980  0.07263436  0.50331157     0.25600
C2348       C  0.52753380  0.07209521  0.48979921    -0.40700
C2349       C  0.52416774  0.08291080  0.48180726     0.32500
C2350       C  0.51742541  0.09373909  0.48706902     0.14200
F2351       F  0.51473808  0.08377955  0.52159911    -0.13100
F2352       F  0.52763905  0.08312158  0.46891079    -0.13600
F2353       F  0.52729287  0.06238627  0.51134379    -0.15900
F2354       F  0.51431140  0.10398577  0.47910684    -0.14400
F2355       F  0.52577372  0.11378199  0.51658556    -0.14400
F2356       F  0.47328190  0.11953374  0.50392966    -0.15900
C2357       C  0.40110569  0.19687993  0.58522585     0.14200
C2358       C  0.38886889  0.19426119  0.57938613     0.01200
C2359       C  0.38828846  0.18585937  0.56839431     0.16100
C2360       C  0.39986092  0.18063948  0.56293484     0.25600
C2361       C  0.41218153  0.18392418  0.56829550    -0.40800
C2362       C  0.41267003  0.19180226  0.57969504     0.32600
C2363       C  0.37707357  0.20185974  0.58338525     0.01200
F2364       F  0.37657489  0.18345423  0.56242887    -0.13100
F2365       F  0.42445074  0.19516026  0.58505397    -0.13600
C2366       C  0.37406765  0.21352100  0.57668903     0.16200
C2367       C  0.36256172  0.22046509  0.57958723     0.25600
C2368       C  0.35372738  0.21586586  0.58924932    -0.40700
C2369       C  0.35706245  0.20448536  0.59641587     0.32500
C2370       C  0.36866515  0.19751513  0.59347209     0.14200
F2371       F  0.38222650  0.21807163  0.56713036    -0.13100
F2372       F  0.34879111  0.19972619  0.60575817    -0.13600
F2373       F  0.36006304  0.23172850  0.57287577    -0.15900
F2374       F  0.37150962  0.18634248  0.60018485    -0.14400
F2375       F  0.40192153  0.20507088  0.59575341    -0.14400
F2376       F  0.39911104  0.17342793  0.55171308    -0.15900
C2377       C  0.50656267  0.25270406  0.52760686     0.14200
C2378       C  0.49875836  0.26287240  0.52236663     0.01200
C2379       C  0.48652352  0.25971531  0.51671716     0.16100
C2380       C  0.48198703  0.24669915  0.51674205     0.25600
C2381       C  0.48964315  0.23662011  0.52232172    -0.40800
C2382       C  0.50205633  0.23968975  0.52755617     0.32600
C2383       C  0.50310298  0.27678492  0.52355530     0.01200
F2384       F  0.47869757  0.26931278  0.51173537    -0.13100
F2385       F  0.50947236  0.23022567  0.53335046    -0.13600
C2386       C  0.50470951  0.28480084  0.51238714     0.16200
C2387       C  0.50951390  0.29770148  0.51366012     0.25600
C2388       C  0.51272305  0.30280369  0.52614075    -0.40700
C2389       C  0.51064929  0.29486503  0.53731501     0.32500
C2390       C  0.50589183  0.28204152  0.53602563     0.14200
F2391       F  0.50207742  0.27997668  0.50020967    -0.13100
F2392       F  0.51306545  0.29954542  0.54959349    -0.13600
F2393       F  0.51161478  0.30493730  0.50264563    -0.15900
F2394       F  0.50391506  0.27474219  0.54703554    -0.14400
F2395       F  0.51845689  0.25544142  0.53305779    -0.14400
F2396       F  0.47001282  0.24394424  0.51147308    -0.15900
C2397       C  0.99924349  0.43146693  0.49773999     0.14200
C2398       C  0.00494281  0.43190733  0.51033744     0.01200
C2399       C  0.00509870  0.42039245  0.51799644     0.16100
C2400       C  0.99967602  0.40866294  0.51313987     0.25600
C2401       C  0.99380489  0.40825717  0.50058775    -0.40800
C2402       C  0.99369473  0.41978404  0.49293003     0.32600
C2403       C  0.01094639  0.44430137  0.51534228     0.01200
F2404       F  0.01029540  0.42057085  0.53030321    -0.13100
F2405       F  0.98865242  0.41963286  0.48056763    -0.13600
C2406       C  0.00340686  0.45586543  0.51641871     0.16200
C2407       C  0.00915630  0.46757250  0.52093457     0.25600
C2408       C  0.02255362  0.46793522  0.52443280    -0.40700
C2409       C  0.03008428  0.45639120  0.52333877     0.32500
C2410       C  0.02433070  0.44468155  0.51888032     0.14200
F2411       F  0.99041505  0.45576558  0.51327776    -0.13100
F2412       F  0.04297655  0.45639694  0.52685764    -0.13600
F2413       F  0.00169038  0.47862009  0.52170936    -0.15900
F2414       F  0.03189310  0.43372764  0.51784352    -0.14400
F2415       F  0.99937156  0.44229568  0.48993595    -0.14400
F2416       F  0.99985262  0.39779668  0.52088666    -0.15900
C2417       C  0.00070785  0.09189122  0.52106634     0.14200
C2418       C  0.01171074  0.09079935  0.51268617     0.01200
C2419       C  0.01676927  0.07820538  0.50987880     0.16100
C2420       C  0.01081060  0.06696526  0.51518624     0.25600
C2421       C  0.99964241  0.06811871  0.52323792    -0.40800
C2422       C  0.99465345  0.08063366  0.52618046     0.32600
C2423       C  0.01766284  0.10279111  0.50674351     0.01200
F2424       F  0.02723840  0.07675012  0.50170134    -0.13100
F2425       F  0.98393171  0.08193035  0.53405238    -0.13600
C2426       C  0.03120254  0.10546244  0.50808000     0.16200
C2427       C  0.03661052  0.11700940  0.50284284     0.25600
C2428       C  0.02852567  0.12627345  0.49652990    -0.40700
C2429       C  0.01504905  0.12354580  0.49503055     0.32500
C2430       C  0.00971200  0.11182378  0.49989776     0.14200
F2431       F  0.03912013  0.09713987  0.51487749    -0.13100
F2432       F  0.00708545  0.13212534  0.48861621    -0.13600
F2433       F  0.04965701  0.11942181  0.50447414    -0.15900
F2434       F  0.99676148  0.10922794  0.49781902    -0.14400
F2435       F  0.99590225  0.10389464  0.52441833    -0.14400
F2436       F  0.01575940  0.05491110  0.51225584    -0.15900
C2437       C  0.11732052  0.19603439  0.42637986     0.14200
C2438       C  0.12894539  0.19066292  0.43153192     0.01200
C2439       C  0.12809240  0.18110106  0.44150726     0.16100
C2440       C  0.11582650  0.17748806  0.44670998     0.25600
C2441       C  0.10426305  0.18356491  0.44215488    -0.40800
C2442       C  0.10509492  0.19254939  0.43166626     0.32600
C2443       C  0.14185817  0.19636077  0.42777446     0.01200
F2444       F  0.13919938  0.17575328  0.44664814    -0.13100
F2445       F  0.09406548  0.19832572  0.42683648    -0.13600
C2446       C  0.14909987  0.20337908  0.43719509     0.16200
C2447       C  0.16094123  0.20946756  0.43380405     0.25600
C2448       C  0.16598226  0.20852886  0.42089230    -0.40700
C2449       C  0.15857496  0.20170993  0.41135768     0.32500
C2450       C  0.14658665  0.19568757  0.41477937     0.14200
F2451       F  0.14446918  0.20468324  0.44966782    -0.13100
F2452       F  0.16308191  0.20056501  0.39884148    -0.13600
F2453       F  0.16722493  0.21667129  0.44314199    -0.15900
F2454       F  0.13967489  0.18904343  0.40547085    -0.14400
F2455       F  0.11787245  0.20537899  0.41686617    -0.14400
F2456       F  0.11537719  0.16885894  0.45688520    -0.15900
C2457       C  0.01067881  0.28429935  0.50126528     0.14200
C2458       C  0.00834451  0.27410403  0.49217850     0.01200
C2459       C  0.00053862  0.27674994  0.48108354     0.16100
C2460       C  0.99514403  0.28923647  0.47909651     0.25600
C2461       C  0.99731919  0.29948273  0.48822325    -0.40800
C2462       C  0.00522480  0.29684178  0.49932794     0.32600
C2463       C  0.01442567  0.26085266  0.49376779     0.01200
F2464       F  0.99845919  0.26730243  0.47185658    -0.13100
F2465       F  0.00745386  0.30625814  0.50853110    -0.13600
C2466       C  0.00662265  0.24940607  0.49311166     0.16200
C2467       C  0.01247252  0.23693459  0.49254212     0.25600
C2468       C  0.02626149  0.23563707  0.49278086    -0.40700
C2469       C  0.03401719  0.24703393  0.49429659     0.32500
C2470       C  0.02817173  0.25950382  0.49474074     0.14200
F2471       F  0.99329615  0.25032971  0.49264282    -0.13100
F2472       F  0.04732385  0.24613112  0.49515047    -0.13600
F2473       F  0.00464791  0.22622500  0.49092208    -0.15900
F2474       F  0.03602563  0.27029605  0.49541961    -0.14400
F2475       F  0.01806316  0.28206264  0.51216406    -0.14400
F2476       F  0.98817951  0.29132442  0.46790815    -0.15900
C2477       C  0.77047571  0.28026020  0.34197293     0.14200
C2478       C  0.76415057  0.26797850  0.34122834     0.01200
C2479       C  0.76365682  0.26003368  0.35252024     0.16100
C2480       C  0.76925905  0.26432482  0.36437262     0.25600
C2481       C  0.77555509  0.27667886  0.36520153    -0.40800
C2482       C  0.77608678  0.28459038  0.35383002     0.32600
C2483       C  0.75761681  0.26366092  0.32884771     0.01200
F2484       F  0.75783320  0.24801250  0.35202718    -0.13100
F2485       F  0.78151058  0.29678456  0.35429393    -0.13600
C2486       C  0.76490348  0.26185437  0.31721180     0.16200
C2487       C  0.75864403  0.25775112  0.30560048     0.25600
C2488       C  0.74495273  0.25548301  0.30539243    -0.40700
C2489       C  0.73770478  0.25730991  0.31704579     0.32500
C2490       C  0.74397164  0.26132716  0.32864270     0.14200
F2491       F  0.77812659  0.26382604  0.31716481    -0.13100
F2492       F  0.72457380  0.25481760  0.31730532    -0.13600
F2493       F  0.76594331  0.25611563  0.29452466    -0.15900
F2494       F  0.73667304  0.26303720  0.33970144    -0.14400
F2495       F  0.77081733  0.28827559  0.33130458    -0.14400
F2496       F  0.76870236  0.25623048  0.37496721    -0.15900
C2497       C  0.86250447  0.34626740  0.44227217     0.14200
C2498       C  0.87395880  0.34257976  0.43552540     0.01200
C2499       C  0.87283922  0.33453840  0.42433604     0.16100
C2500       C  0.86052333  0.32972666  0.42029333     0.25600
C2501       C  0.84901521  0.33282182  0.42743599    -0.40800
C2502       C  0.85016287  0.34156466  0.43822699     0.32600
C2503       C  0.88714198  0.34577249  0.44100996     0.01200
F2504       F  0.88379861  0.33094348  0.41759014    -0.13100
F2505       F  0.83936845  0.34554454  0.44501155    -0.13600
C2506       C  0.89402320  0.33607445  0.44795056     0.16200
C2507       C  0.90653393  0.33864085  0.45306235     0.25600
C2508       C  0.91264118  0.35099213  0.45120806    -0.40700
C2509       C  0.90556852  0.36085857  0.44447892     0.32500
C2510       C  0.89289019  0.35826722  0.43947445     0.14200
F2511       F  0.88850714  0.32406393  0.44992413    -0.13100
F2512       F  0.91103731  0.37285948  0.44238410    -0.13600
F2513       F  0.91246727  0.32903827  0.46016532    -0.15900
F2514       F  0.88631258  0.36786285  0.43294012    -0.14400
F2515       F  0.86333213  0.35398634  0.45315205    -0.14400
F2516       F  0.86006364  0.32147436  0.40981346    -0.15900
C2517       C  0.73548118  0.26608492  0.66822499     0.14200
C2518       C  0.74926917  0.26550690  0.66869351     0.01200
C2519       C  0.75654659  0.26894216  0.65748443     0.16100
C2520       C  0.75013436  0.27276614  0.64588687     0.25600
C2521       C  0.73624216  0.27313771  0.64523732    -0.40800
C2522       C  0.72901183  0.26982987  0.65662616     0.32600
C2523       C  0.75603178  0.26046880  0.68058379     0.01200
F2524       F  0.76990352  0.26846120  0.65775008    -0.13100
F2525       F  0.71565749  0.26969137  0.65643949    -0.13600
C2526       C  0.75868905  0.24698012  0.68170747     0.16200
C2527       C  0.76513215  0.24203875  0.69282088     0.25600
C2528       C  0.76900177  0.25051010  0.70310234    -0.40700
C2529       C  0.76625795  0.26405846  0.70197613     0.32500
C2530       C  0.75984948  0.26899042  0.69078378     0.14200
F2531       F  0.75506775  0.23858725  0.67195919    -0.13100
F2532       F  0.76950221  0.27247278  0.71184173    -0.13600
F2533       F  0.76786718  0.22898156  0.69338107    -0.15900
F2534       F  0.75732642  0.28207025  0.68990814    -0.14400
F2535       F  0.72827123  0.26271993  0.67895611    -0.14400
F2536       F  0.75759255  0.27630496  0.63539277    -0.15900
C2537       C  0.63711677  0.33584920  0.59250327     0.14200
C2538       C  0.63298795  0.33628403  0.57927585     0.01200
C2539       C  0.64112492  0.33072768  0.56957026     0.16100
C2540       C  0.65315459  0.32500260  0.57294612     0.25600
C2541       C  0.65732870  0.32454218  0.58617440    -0.40800
C2542       C  0.64912056  0.32993675  0.59592914     0.32600
C2543       C  0.61999583  0.34195199  0.57553890     0.01200
F2544       F  0.63725318  0.33049037  0.55678334    -0.13100
F2545       F  0.65290354  0.32989192  0.60873186    -0.13600
C2546       C  0.61902808  0.35138484  0.56544187     0.16200
C2547       C  0.60669602  0.35557478  0.56090347     0.25600
C2548       C  0.59505173  0.35060405  0.56653993    -0.40700
C2549       C  0.59606894  0.34163181  0.57706354     0.32500
C2550       C  0.60837862  0.33727177  0.58141541     0.14200
F2551       F  0.63005773  0.35636389  0.55976391    -0.13100
F2552       F  0.58512043  0.33691101  0.58310095    -0.13600
F2553       F  0.60620665  0.36392202  0.55050811    -0.15900
F2554       F  0.60889823  0.32797887  0.59098486    -0.14400
F2555       F  0.62964639  0.34139303  0.60209215    -0.14400
F2556       F  0.66050694  0.31953615  0.56322094    -0.15900
C2557       C  0.75212766  0.27946807  0.52034167     0.14200
C2558       C  0.74488316  0.28490648  0.50992173     0.01200
C2559       C  0.73242707  0.29028387  0.51246321     0.16100
C2560       C  0.72755464  0.29083813  0.52530711     0.25600
C2561       C  0.73514875  0.28615209  0.53595351    -0.40800
C2562       C  0.74734378  0.28012284  0.53324986     0.32600
C2563       C  0.75085326  0.28626309  0.49670138     0.01200
F2564       F  0.72508971  0.29528575  0.50248472    -0.13100
F2565       F  0.75507023  0.27558683  0.54313037    -0.13600
C2566       C  0.75471471  0.27518628  0.48936503     0.16200
C2567       C  0.76084834  0.27675102  0.47710128     0.25600
C2568       C  0.76332014  0.28941764  0.47210771    -0.40700
C2569       C  0.75928892  0.30045459  0.47940861     0.32500
C2570       C  0.75311455  0.29888866  0.49157110     0.14200
F2571       F  0.75261206  0.26288827  0.49411815    -0.13100
F2572       F  0.76126667  0.31280484  0.47473058    -0.13600
F2573       F  0.76488475  0.26592816  0.47039321    -0.15900
F2574       F  0.74968267  0.30975220  0.49855936    -0.14400
F2575       F  0.76421952  0.27423798  0.51812931    -0.14400
F2576       F  0.71540588  0.29603934  0.52723756    -0.15900
C2577       C  0.52121787  0.02016217  0.40694499     0.14200
C2578       C  0.51457823  0.01907988  0.41904549     0.01200
C2579       C  0.50284292  0.01175187  0.41954287     0.16100
C2580       C  0.49792768  0.00549535  0.40825927     0.25600
C2581       C  0.50467328  0.00633594  0.39615154    -0.40800
C2582       C  0.51634218  0.01387328  0.39563432     0.32600
C2583       C  0.51993688  0.02540765  0.43118825     0.01200
F2584       F  0.49597696  0.01083358  0.43096777    -0.13100
F2585       F  0.52333942  0.01482490  0.38430012    -0.13600
C2586       C  0.52197222  0.03909313  0.43178983     0.16200
C2587       C  0.52691720  0.04500366  0.44327190     0.25600
C2588       C  0.52997828  0.03734815  0.45441026    -0.40700
C2589       C  0.52792243  0.02365019  0.45377936     0.32500
C2590       C  0.52296844  0.01776233  0.44231359     0.14200
F2591       F  0.51898521  0.04677979  0.42129672    -0.13100
F2592       F  0.53048130  0.01595558  0.46438184    -0.13600
F2593       F  0.52898034  0.05819892  0.44339436    -0.15900
F2594       F  0.52129107  0.00451360  0.44201591    -0.14400
F2595       F  0.53267484  0.02700691  0.40615552    -0.14400
F2596       F  0.48633392  0.99891819  0.40917102    -0.15900
C2597       C  0.50798032  0.04123442  0.09360345     0.14200
C2598       C  0.50898479  0.02756547  0.09177472     0.01200
C2599       C  0.50430493  0.01912624  0.10165487     0.16100
C2600       C  0.49888722  0.02423472  0.11326322     0.25600
C2601       C  0.49813311  0.03792835  0.11529224    -0.40800
C2602       C  0.50261287  0.04638224  0.10525656     0.32600
C2603       C  0.51500142  0.02202024  0.07964772     0.01200
F2604       F  0.50489272  0.00588726  0.09998830    -0.13100
F2605       F  0.50230998  0.05962639  0.10692880    -0.13600
C2606       C  0.52720274  0.01552113  0.08024261     0.16200
C2607       C  0.53268159  0.00983281  0.06891908     0.25600
C2608       C  0.52594962  0.01036159  0.05684563    -0.40700
C2609       C  0.51373610  0.01685976  0.05625668     0.32500
C2610       C  0.50837353  0.02275675  0.06753578     0.14200
F2611       F  0.53377860  0.01465085  0.09183388    -0.13100
F2612       F  0.50702149  0.01750682  0.04472969    -0.13600
F2613       F  0.54436547  0.00342413  0.06982281    -0.15900
F2614       F  0.49654736  0.02891046  0.06672238    -0.14400
F2615       F  0.51255812  0.04959454  0.08425174    -0.14400
F2616       F  0.49412453  0.01575269  0.12240906    -0.15900
C2617       C  0.49935349  0.01101095  0.27017391     0.14200
C2618       C  0.48795268  0.01263383  0.26256759     0.01200
C2619       C  0.47572247  0.00886173  0.26774123     0.16100
C2620       C  0.47486381  0.00355652  0.28039432     0.25600
C2621       C  0.48626224  0.00195765  0.28814120    -0.40800
C2622       C  0.49853308  0.00571872  0.28287901     0.32600
C2623       C  0.48861359  0.01897271  0.24951982     0.01200
F2624       F  0.46456408  0.01051994  0.26057823    -0.13100
F2625       F  0.50975550  0.00408381  0.28992810    -0.13600
C2626       C  0.49181308  0.01168138  0.23822923     0.16200
C2627       C  0.49134676  0.01757413  0.22576308     0.25600
C2628       C  0.48763475  0.03086205  0.22444883    -0.40700
C2629       C  0.48509725  0.03825924  0.23592821     0.32500
C2630       C  0.48545288  0.03231977  0.24830601     0.14200
F2631       F  0.49489772  0.99873481  0.23925412    -0.13100
F2632       F  0.48226735  0.05128629  0.23522231    -0.13600
F2633       F  0.49384778  0.01008895  0.21499025    -0.15900
F2634       F  0.48248294  0.03955335  0.25914651    -0.14400
F2635       F  0.51123930  0.01475835  0.26534823    -0.14400
F2636       F  0.46278755  0.00048783  0.28523086    -0.15900
C2637       C  0.66010628  0.26848592  0.25785390     0.14200
C2638       C  0.67212431  0.27522780  0.25695488     0.01200
C2639       C  0.67240470  0.28759312  0.25086973     0.16100
C2640       C  0.66081158  0.29338981  0.24618163     0.25600
C2641       C  0.64856839  0.28682926  0.24725589    -0.40800
C2642       C  0.64851033  0.27408558  0.25289562     0.32600
C2643       C  0.68442109  0.26937515  0.26226856     0.01200
F2644       F  0.68393807  0.29426725  0.24979054    -0.13100
F2645       F  0.63733491  0.26680074  0.25346079    -0.13600
C2646       C  0.69479090  0.26603774  0.25376324     0.16200
C2647       C  0.70645954  0.26064852  0.25871940     0.25600
C2648       C  0.70799432  0.25840491  0.27232035    -0.40700
C2649       C  0.69763994  0.26194402  0.28085641     0.32500
C2650       C  0.68596028  0.26734602  0.27586141     0.14200
F2651       F  0.69353164  0.26784932  0.24059258    -0.13100
F2652       F  0.69866404  0.25985180  0.29400503    -0.13600
F2653       F  0.71635604  0.25779009  0.25020433    -0.15900
F2654       F  0.67617144  0.27071378  0.28431359    -0.14400
F2655       F  0.65963024  0.25633610  0.26337661    -0.14400
F2656       F  0.66170629  0.30561231  0.24096321    -0.15900
C2657       C  0.34627750  0.25343366  0.25709682     0.14200
C2658       C  0.34468023  0.26714115  0.25643150     0.01200
C2659       C  0.35497225  0.27492073  0.25154540     0.16100
C2660       C  0.36686362  0.26915198  0.24770831     0.25600
C2661       C  0.36865774  0.25543756  0.24859330    -0.40800
C2662       C  0.35814829  0.24759576  0.25311681     0.32600
C2663       C  0.33260131  0.27349508  0.26150134     0.01200
F2664       F  0.35358984  0.28818004  0.25078403    -0.13100
F2665       F  0.35955116  0.23436800  0.25424292    -0.13600
C2666       C  0.33115095  0.27565933  0.27505104     0.16200
C2667       C  0.32010253  0.28228409  0.27992507     0.25600
C2668       C  0.31013373  0.28666894  0.27132527    -0.40700
C2669       C  0.31164289  0.28443902  0.25770750     0.32500
C2670       C  0.32284081  0.27800586  0.25284798     0.14200
F2671       F  0.34062076  0.27158656  0.28354179    -0.13100
F2672       F  0.30215056  0.28822087  0.24911180    -0.13600
F2673       F  0.31935659  0.28474075  0.29303645    -0.15900
F2674       F  0.32414497  0.27610895  0.23969011    -0.14400
F2675       F  0.33640366  0.24575138  0.26179980    -0.14400
F2676       F  0.37659151  0.27700954  0.24300205    -0.15900
C2677       C  0.42849153  0.15804660  0.19238142     0.14200
C2678       C  0.44164294  0.15378431  0.19229361     0.01200
C2679       C  0.45136388  0.16196193  0.19769675     0.16100
C2680       C  0.44800137  0.17393963  0.20351699     0.25600
C2681       C  0.43480708  0.17842087  0.20356092    -0.40800
C2682       C  0.42510208  0.17025710  0.19785943     0.32600
C2683       C  0.44513202  0.14037427  0.18765665     0.01200
F2684       F  0.46420603  0.15824178  0.19751742    -0.13100
F2685       F  0.41229528  0.17398522  0.19753348    -0.13600
C2686       C  0.44217886  0.13616480  0.17479748     0.16200
C2687       C  0.44522238  0.12331011  0.17075947     0.25600
C2688       C  0.45123276  0.11445892  0.17953325    -0.40700
C2689       C  0.45439597  0.11883086  0.19231558     0.32500
C2690       C  0.45135135  0.13160241  0.19631486     0.14200
F2691       F  0.43643790  0.14453159  0.16613099    -0.13100
F2692       F  0.46070819  0.11085653  0.20095417    -0.13600
F2693       F  0.44194518  0.11941279  0.15841205    -0.15900
F2694       F  0.45429235  0.13533975  0.20880821    -0.14400
F2695       F  0.41883753  0.15018650  0.18751445    -0.14400
F2696       F  0.45774661  0.18075577  0.20957951    -0.15900
C2697       C  0.52397189  0.27920207  0.25818147     0.14200
C2698       C  0.51429279  0.28498740  0.25022588     0.01200
C2699       C  0.51723362  0.29654302  0.24332140     0.16100
C2700       C  0.52975996  0.30216680  0.24415754     0.25600
C2701       C  0.53965693  0.29626126  0.25189371    -0.40800
C2702       C  0.53657492  0.28476202  0.25899112     0.32600
C2703       C  0.50141972  0.27849128  0.24835912     0.01200
F2704       F  0.50800317  0.30224288  0.23553315    -0.13100
F2705       F  0.54573540  0.27889602  0.26672574    -0.13600
C2706       C  0.49200204  0.27833404  0.25847066     0.16200
C2707       C  0.47989295  0.27196763  0.25661285     0.25600
C2708       C  0.47713147  0.26555041  0.24464480    -0.40700
C2709       C  0.48657360  0.26591762  0.23448751     0.32500
C2710       C  0.49857071  0.27235930  0.23633237     0.14200
F2711       F  0.49455017  0.28437306  0.27011225    -0.13100
F2712       F  0.48413011  0.26024992  0.22263602    -0.13600
F2713       F  0.47108496  0.27170930  0.26665250    -0.15900
F2714       F  0.50752185  0.27247475  0.22640473    -0.14400
F2715       F  0.52131800  0.26792782  0.26482490    -0.14400
F2716       F  0.53231465  0.31301464  0.23682258    -0.15900
C2717       C  0.35677393  0.77567041  0.25069118     0.14200
C2718       C  0.34485602  0.77742243  0.25749526     0.01200
C2719       C  0.34480432  0.78498418  0.26907606     0.16100
C2720       C  0.35647287  0.79050046  0.27392222     0.25600
C2721       C  0.36849090  0.78858132  0.26727162    -0.40800
C2722       C  0.36846844  0.78119867  0.25550717     0.32600
C2723       C  0.33249705  0.77118041  0.25274310     0.01200
F2724       F  0.33347484  0.78666193  0.27596493    -0.13100
F2725       F  0.37970923  0.77952661  0.24847871    -0.13600
C2726       C  0.33155478  0.75742834  0.25156089     0.16200
C2727       C  0.31972666  0.75150730  0.24760966     0.25600
C2728       C  0.30855801  0.75923061  0.24482092    -0.40700
C2729       C  0.30955956  0.77301887  0.24601457     0.32500
C2730       C  0.32142078  0.77891525  0.24983443     0.14200
F2731       F  0.34205856  0.74970094  0.25443792    -0.13100
F2732       F  0.29896690  0.78081727  0.24370163    -0.13600
F2733       F  0.31931208  0.73823185  0.24621571    -0.15900
F2734       F  0.32213343  0.79223372  0.25058732    -0.14400
F2735       F  0.35705919  0.76872808  0.23927333    -0.14400
F2736       F  0.35604117  0.79724015  0.28544258    -0.15900
C2737       C  0.42934806  0.91088209  0.34255293     0.14200
C2738       C  0.43800649  0.90020843  0.34089990     0.01200
C2739       C  0.45154462  0.90212750  0.34323871     0.16100
C2740       C  0.45635793  0.91455570  0.34676700     0.25600
C2741       C  0.44774922  0.92528533  0.34789980    -0.40800
C2742       C  0.43420728  0.92334530  0.34589677     0.32600
C2743       C  0.43312791  0.88733181  0.33590269     0.01200
F2744       F  0.46021785  0.89215393  0.34132120    -0.13100
F2745       F  0.42573395  0.93362008  0.34688587    -0.13600
C2746       C  0.42648125  0.88657563  0.32376614     0.16200
C2747       C  0.42288506  0.87435405  0.31846601     0.25600
C2748       C  0.42607641  0.86265513  0.32509400    -0.40700
C2749       C  0.43235616  0.86342979  0.33740781     0.32500
C2750       C  0.43576537  0.87564946  0.34280277     0.14200
F2751       F  0.42412127  0.89763921  0.31668114    -0.13100
F2752       F  0.43524661  0.85231245  0.34420303    -0.13600
F2753       F  0.41706559  0.87393791  0.30645275    -0.15900
F2754       F  0.44179108  0.87607461  0.35471782    -0.14400
F2755       F  0.41621050  0.90928300  0.34067798    -0.14400
F2756       F  0.46953727  0.91632788  0.34814388    -0.15900
C2757       C  0.67359683  0.75875242  0.25819672     0.14200
C2758       C  0.67273488  0.77070721  0.25137266     0.01200
C2759       C  0.66035049  0.77660906  0.24979575     0.16100
C2760       C  0.64904421  0.77077883  0.25514093     0.25600
C2761       C  0.64982057  0.75872271  0.26204417    -0.40800
C2762       C  0.66233291  0.75280194  0.26341932     0.32600
C2763       C  0.68483426  0.77711630  0.24622048     0.01200
F2764       F  0.65923514  0.78826421  0.24338126    -0.13100
F2765       F  0.66381943  0.74106952  0.26955779    -0.13600
C2766       C  0.68617841  0.77994320  0.23274724     0.16200
C2767       C  0.69772460  0.78578308  0.22795119     0.25600
C2768       C  0.70818479  0.78884627  0.23653632    -0.40700
C2769       C  0.70679742  0.78598994  0.25001707     0.32500
C2770       C  0.69521992  0.78026742  0.25480617     0.14200
F2771       F  0.67638584  0.77685283  0.22419141    -0.13100
F2772       F  0.71678300  0.78846686  0.25854550    -0.13600
F2773       F  0.69857942  0.78865494  0.21493702    -0.15900
F2774       F  0.69409050  0.77789862  0.26790261    -0.14400
F2775       F  0.68540596  0.75266996  0.25962756    -0.14400
F2776       F  0.63746340  0.77726197  0.25382559    -0.15900
C2777       C  0.51778691  0.75315638  0.28161055     0.14200
C2778       C  0.51506444  0.76440736  0.27408709     0.01200
C2779       C  0.52538428  0.77035425  0.26701496     0.16100
C2780       C  0.53833235  0.76574738  0.26824284     0.25600
C2781       C  0.54119190  0.75488201  0.27637546    -0.40800
C2782       C  0.53061424  0.74831353  0.28254810     0.32600
C2783       C  0.50179184  0.77056468  0.27470698     0.01200
F2784       F  0.52297133  0.78087022  0.25915493    -0.13100
F2785       F  0.53258216  0.73717887  0.28961678    -0.13600
C2786       C  0.50052815  0.78375244  0.27866787     0.16200
C2787       C  0.48811667  0.78926903  0.28076900     0.25600
C2788       C  0.47661534  0.78162950  0.27934281    -0.40700
C2789       C  0.47785366  0.76854679  0.27489033     0.32500
C2790       C  0.49031069  0.76312188  0.27248869     0.14200
F2791       F  0.51136269  0.79119769  0.28111132    -0.13100
F2792       F  0.46709604  0.76076191  0.27340670    -0.13600
F2793       F  0.48744536  0.80214992  0.28421072    -0.15900
F2794       F  0.49116253  0.75048844  0.26822388    -0.14400
F2795       F  0.50812601  0.74717893  0.28865282    -0.14400
F2796       F  0.54806263  0.77235958  0.26193070    -0.15900
C2797       C  0.49715144  0.51822714  0.10070768     0.14200
C2798       C  0.50439874  0.51791841  0.08891172     0.01200
C2799       C  0.51654007  0.51121560  0.08878544     0.16100
C2800       C  0.52140846  0.50517962  0.10023827     0.25600
C2801       C  0.51431601  0.50581387  0.11213913    -0.40800
C2802       C  0.50205059  0.51231557  0.11216534     0.32600
C2803       C  0.49929175  0.52465347  0.07684683     0.01200
F2804       F  0.52391206  0.51084749  0.07765020    -0.13100
F2805       F  0.49456185  0.51268540  0.12322121    -0.13600
C2806       C  0.49582307  0.53807505  0.07719458     0.16200
C2807       C  0.49077873  0.54435554  0.06598074     0.25600
C2808       C  0.48909666  0.53739087  0.05412429    -0.40700
C2809       C  0.49261373  0.52399425  0.05374293     0.32500
C2810       C  0.49764446  0.51770178  0.06496428     0.14200
F2811       F  0.49741823  0.54517098  0.08840520    -0.13100
F2812       F  0.49131249  0.51700926  0.04242535    -0.13600
F2813       F  0.48719824  0.55719269  0.06681422    -0.15900
F2814       F  0.50061983  0.50470339  0.06429304    -0.14400
F2815       F  0.48514469  0.52407536  0.10109273    -0.14400
F2816       F  0.53331450  0.49915223  0.09977173    -0.15900
C2817       C  0.58114405  0.39478926  0.20651669     0.14200
C2818       C  0.58364532  0.39526421  0.19291872     0.01200
C2819       C  0.59003591  0.38456546  0.18690486     0.16100
C2820       C  0.59373517  0.37351978  0.19434736     0.25600
C2821       C  0.59097343  0.37294367  0.20791873    -0.40800
C2822       C  0.58477637  0.38378872  0.21392576     0.32600
C2823       C  0.57952976  0.40700280  0.18520475     0.01200
F2824       F  0.59270468  0.38483585  0.17382462    -0.13100
F2825       F  0.58229316  0.38380113  0.22705394    -0.13600
C2826       C  0.58446489  0.41947790  0.18854801     0.16200
C2827       C  0.57920653  0.43081628  0.18282243     0.25600
C2828       C  0.56893252  0.42993584  0.17357412    -0.40700
C2829       C  0.56460691  0.41743854  0.16951836     0.32500
C2830       C  0.56983484  0.40603664  0.17533549     0.14200
F2831       F  0.59403563  0.42069990  0.19779530    -0.13100
F2832       F  0.55454463  0.41630903  0.16080545    -0.13600
F2833       F  0.58375701  0.44275414  0.18675979    -0.15900
F2834       F  0.56474876  0.39413100  0.17203659    -0.14400
F2835       F  0.57487705  0.40490516  0.21260108    -0.14400
F2836       F  0.59952271  0.36319321  0.18817244    -0.15900
C2837       C  0.51250095  0.51864209  0.40381627     0.14200
C2838       C  0.51027464  0.52575807  0.41545628     0.01200
C2839       C  0.51221057  0.53944933  0.41540114     0.16100
C2840       C  0.51606943  0.54595419  0.40385764     0.25600
C2841       C  0.51820433  0.53886812  0.39211403    -0.40800
C2842       C  0.51647200  0.52508772  0.39229801     0.32600
C2843       C  0.50533747  0.51901070  0.42747477     0.01200
F2844       F  0.50990352  0.54660218  0.42644855    -0.13100
F2845       F  0.51887144  0.51773125  0.38141155    -0.13600
C2846       C  0.51272631  0.51902813  0.43918879     0.16200
C2847       C  0.50771462  0.51311539  0.45063454     0.25600
C2848       C  0.49515047  0.50726747  0.45058663    -0.40700
C2849       C  0.48792274  0.50700762  0.43879272     0.32500
C2850       C  0.49297923  0.51277178  0.42734589     0.14200
F2851       F  0.52481613  0.52472865  0.43950361    -0.13100
F2852       F  0.47596230  0.50105112  0.43835309    -0.13600
F2853       F  0.51498680  0.51336666  0.46183323    -0.15900
F2854       F  0.48565132  0.51254301  0.41617911    -0.14400
F2855       F  0.51093557  0.50537738  0.40363557    -0.14400
F2856       F  0.51717314  0.55925487  0.40409631    -0.15900
C2857       C  0.57286910  0.63927479  0.32140752     0.14200
C2858       C  0.58200341  0.64375079  0.33073183     0.01200
C2859       C  0.58379521  0.63653128  0.34238313     0.16100
C2860       C  0.57676597  0.62480486  0.34449740     0.25600
C2861       C  0.56767896  0.62021551  0.33505410    -0.40800
C2862       C  0.56569204  0.62777059  0.32357672     0.32600
C2863       C  0.58885308  0.65643548  0.32842503     0.01200
F2864       F  0.59247414  0.64075450  0.35162254    -0.13100
F2865       F  0.55643647  0.62436467  0.31456945    -0.13600
C2866       C  0.58581018  0.66741009  0.33623536     0.16200
C2867       C  0.58997156  0.67997925  0.33247701     0.25600
C2868       C  0.59732707  0.68180226  0.32087924    -0.40700
C2869       C  0.60119263  0.67068501  0.31357325     0.32500
C2870       C  0.59694518  0.65810411  0.31730981     0.14200
F2871       F  0.57802501  0.66607790  0.34701066    -0.13100
F2872       F  0.60817690  0.67205100  0.30226795    -0.13600
F2873       F  0.58640840  0.69046383  0.33995135    -0.15900
F2874       F  0.60017756  0.64759424  0.30971439    -0.14400
F2875       F  0.57057056  0.64633112  0.31030415    -0.14400
F2876       F  0.57910113  0.61783121  0.35562516    -0.15900
C2877       C  0.51885736  0.50904449  0.24450324     0.14200
C2878       C  0.52041400  0.52271865  0.24541528     0.01200
C2879       C  0.52272155  0.53007864  0.23396664     0.16100
C2880       C  0.52354069  0.52384310  0.22174097     0.25600
C2881       C  0.52202372  0.51011644  0.22076278    -0.40800
C2882       C  0.51963639  0.50277674  0.23228778     0.32600
C2883       C  0.52056382  0.52919171  0.25840541     0.01200
F2884       F  0.52440367  0.54331195  0.23467942    -0.13100
F2885       F  0.51802867  0.48952833  0.23177825    -0.13600
C2886       C  0.53216542  0.53520162  0.26284988     0.16200
C2887       C  0.53256633  0.54119410  0.27516935     0.25600
C2888       C  0.52136815  0.54124051  0.28332050    -0.40700
C2889       C  0.50974652  0.53513114  0.27893352     0.32500
C2890       C  0.50933510  0.52918011  0.26649622     0.14200
F2891       F  0.54322589  0.53500639  0.25534260    -0.13100
F2892       F  0.49873170  0.53526330  0.28650072    -0.13600
F2893       F  0.54407698  0.54660069  0.27929376    -0.15900
F2894       F  0.49794965  0.52361936  0.26222878    -0.14400
F2895       F  0.51704309  0.50171622  0.25552050    -0.14400
F2896       F  0.52646981  0.53118470  0.21098818    -0.15900
C2897       C  0.25127933  0.36018905  0.77269778     0.14200
C2898       C  0.25387427  0.35651112  0.75962910     0.01200
C2899       C  0.26089586  0.36519584  0.75148552     0.16100
C2900       C  0.26527285  0.37737910  0.75631044     0.25600
C2901       C  0.26293437  0.38100023  0.76948364    -0.40800
C2902       C  0.25585383  0.37226742  0.77761774     0.32600
C2903       C  0.24911856  0.34372201  0.75435269     0.01200
F2904       F  0.26347574  0.36185563  0.73880984    -0.13100
F2905       F  0.25310734  0.37554636  0.79027398    -0.13600
C2906       C  0.23580502  0.34206140  0.75101061     0.16200
C2907       C  0.23142964  0.33030542  0.74524584     0.25600
C2908       C  0.24029796  0.31995609  0.74273553    -0.40700
C2909       C  0.25359187  0.32154114  0.74635455     0.32500
C2910       C  0.25795592  0.33332723  0.75209931     0.14200
F2911       F  0.22712326  0.35202379  0.75292718    -0.13100
F2912       F  0.26233675  0.31163916  0.74438648    -0.13600
F2913       F  0.21861826  0.32925186  0.74158590    -0.15900
F2914       F  0.27083279  0.33463449  0.75543118    -0.14400
F2915       F  0.24441760  0.35201043  0.78072829    -0.14400
F2916       F  0.27217716  0.38543470  0.74820296    -0.15900
C2917       C  0.27007782  0.68027884  0.75554536     0.14200
C2918       C  0.26069832  0.68859741  0.74970823     0.01200
C2919       C  0.25576578  0.68528694  0.73717414     0.16100
C2920       C  0.25993021  0.67373421  0.73077370     0.25600
C2921       C  0.26901091  0.66522393  0.73683940    -0.40800
C2922       C  0.27412541  0.66870406  0.74922933     0.32600
C2923       C  0.25579534  0.70041004  0.75696340     0.01200
F2924       F  0.24653838  0.69297977  0.73135078    -0.13100
F2925       F  0.28323827  0.66096603  0.75516475    -0.13600
C2926       C  0.25711717  0.71312982  0.75164663     0.16200
C2927       C  0.25249249  0.72415775  0.75859027     0.25600
C2928       C  0.24655824  0.72269020  0.77100863    -0.40700
C2929       C  0.24533067  0.71002227  0.77637528     0.32500
C2930       C  0.24984747  0.69899208  0.76940785     0.14200
F2931       F  0.26307413  0.71489214  0.73982204    -0.13100
F2932       F  0.23938339  0.70830446  0.78821323    -0.13600
F2933       F  0.25389963  0.73631324  0.75325204    -0.15900
F2934       F  0.24810728  0.68684795  0.77467540    -0.14400
F2935       F  0.27539405  0.68342303  0.76739283    -0.14400
F2936       F  0.25461936  0.67055418  0.71893470    -0.15900
C2937       C  0.29356432  0.53479389  0.74812252     0.14200
C2938       C  0.28138502  0.53040482  0.75297548     0.01200
C2939       C  0.27079755  0.53931462  0.75356822     0.16100
C2940       C  0.27230704  0.55230567  0.74907888     0.25600
C2941       C  0.28443942  0.55658495  0.74389608    -0.40800
C2942       C  0.29509013  0.54772171  0.74367703     0.32600
C2943       C  0.27996826  0.51661383  0.75767519     0.01200
F2944       F  0.25889053  0.53530994  0.75813505    -0.13100
F2945       F  0.30711337  0.55163767  0.73934267    -0.13600
C2946       C  0.27722308  0.51403902  0.77096774     0.16200
C2947       C  0.27719728  0.50110094  0.77570950     0.25600
C2948       C  0.27974422  0.49043419  0.76720808    -0.40700
C2949       C  0.28200062  0.49298442  0.75379932     0.32500
C2950       C  0.28221308  0.50595886  0.74910021     0.14200
F2951       F  0.27513484  0.52411518  0.77949341    -0.13100
F2952       F  0.28475127  0.48298492  0.74537979    -0.13600
F2953       F  0.27477249  0.49901800  0.78867701    -0.15900
F2954       F  0.28487150  0.50815112  0.73619708    -0.14400
F2955       F  0.30408475  0.52656766  0.74785529    -0.14400
F2956       F  0.26176029  0.56049045  0.74928107    -0.15900
C2957       C  0.10427701  0.50931643  0.50261287     0.14200
C2958       C  0.09276746  0.51696680  0.50249224     0.01200
C2959       C  0.09287294  0.52903284  0.49575628     0.16100
C2960       C  0.10431172  0.53344568  0.48937418     0.25600
C2961       C  0.11594495  0.52586147  0.48958424    -0.40800
C2962       C  0.11571387  0.51367539  0.49621832     0.32600
C2963       C  0.08062216  0.51225932  0.50923638     0.01200
F2964       F  0.08193913  0.53670425  0.49561021    -0.13100
F2965       F  0.12643860  0.50572790  0.49621136    -0.13600
C2966       C  0.08050556  0.51015323  0.52291490     0.16200
C2967       C  0.06913789  0.50544617  0.52920364     0.25600
C2968       C  0.05766642  0.50266241  0.52191748    -0.40700
C2969       C  0.05777529  0.50491818  0.50824394     0.32500
C2970       C  0.06912214  0.50967475  0.50198543     0.14200
F2971       F  0.09141422  0.51271379  0.53019970    -0.13100
F2972       F  0.04681808  0.50264949  0.50093714    -0.13600
F2973       F  0.06947520  0.50324408  0.54237162    -0.15900
F2974       F  0.06897468  0.51149455  0.48875767    -0.14400
F2975       F  0.10434987  0.49743328  0.50869630    -0.14400
F2976       F  0.10405450  0.54534855  0.48335701    -0.15900
C2977       C  0.42361048  0.52543002  0.51594767     0.14200
C2978       C  0.42416741  0.52283812  0.50237056     0.01200
C2979       C  0.41295671  0.52530253  0.49469367     0.16100
C2980       C  0.40131702  0.53000163  0.50047867     0.25600
C2981       C  0.40048739  0.53214398  0.51420613    -0.40800
C2982       C  0.41191621  0.52997313  0.52182070     0.32600
C2983       C  0.43628822  0.51724144  0.49622928     0.01200
F2984       F  0.41331620  0.52321803  0.48150147    -0.13100
F2985       F  0.41170789  0.53171616  0.53504990    -0.13600
C2986       C  0.43631080  0.50427351  0.49137112     0.16200
C2987       C  0.44770100  0.49889624  0.48567174     0.25600
C2988       C  0.45928160  0.50642894  0.48455548    -0.40700
C2989       C  0.45916673  0.51951054  0.48917013     0.32500
C2990       C  0.44782743  0.52481113  0.49506806     0.14200
F2991       F  0.42530678  0.49674561  0.49231144    -0.13100
F2992       F  0.47014519  0.52708027  0.48821620    -0.13600
F2993       F  0.44735093  0.48638021  0.48101500    -0.15900
F2994       F  0.44806778  0.53739270  0.49954946    -0.14400
F2995       F  0.43429914  0.52312785  0.52361802    -0.14400
F2996       F  0.39094187  0.53265329  0.49251267    -0.15900
C2997       C  0.34104223  0.58440968  0.61699317     0.14200
C2998       C  0.32930834  0.59177190  0.61750029     0.01200
C2999       C  0.32208374  0.59354884  0.60588594     0.16100
C3000       C  0.32609200  0.58751107  0.59414365     0.25600
C3001       C  0.33744765  0.57950967  0.59372449    -0.40800
C3002       C  0.34514001  0.57841239  0.60519692     0.32600
C3003       C  0.32366573  0.59598348  0.63036994     0.01200
F3004       F  0.31068822  0.60051385  0.60608465    -0.13100
F3005       F  0.35614120  0.57084806  0.60524935    -0.13600
C3006       C  0.32257159  0.60932270  0.63395685     0.16200
C3007       C  0.31721223  0.61291532  0.64625463     0.25600
C3008       C  0.31267238  0.60320477  0.65509419    -0.40700
C3009       C  0.31312340  0.58992288  0.65099565     0.32500
C3010       C  0.31870959  0.58639289  0.63893224     0.14200
F3011       F  0.32689659  0.61883917  0.62565143    -0.13100
F3012       F  0.30777914  0.58023383  0.65845558    -0.13600
F3013       F  0.31678952  0.62583519  0.64959214    -0.15900
F3014       F  0.31901592  0.57349831  0.63544418    -0.14400
F3015       F  0.34824974  0.58259848  0.62808839    -0.14400
F3016       F  0.31866530  0.58932305  0.58319729    -0.15900
C3017       C  0.26693270  0.52830421  0.51538040     0.14200
C3018       C  0.26499669  0.53156001  0.50213889     0.01200
C3019       C  0.27597695  0.53391783  0.49406303     0.16100
C3020       C  0.28874809  0.53357491  0.49934419     0.25600
C3021       C  0.29066168  0.53105513  0.51284089    -0.40800
C3022       C  0.27962528  0.52797239  0.52067554     0.32600
C3023       C  0.25145974  0.53362710  0.49720167     0.01200
F3024       F  0.27427761  0.53712239  0.48121418    -0.13100
F3025       F  0.28108523  0.52484900  0.53357332    -0.13600
C3026       C  0.24567078  0.54610227  0.49831752     0.16200
C3027       C  0.23269617  0.54813905  0.49421484     0.25600
C3028       C  0.22520576  0.53768260  0.48907033    -0.40700
C3029       C  0.23093428  0.52511449  0.48816232     0.32500
C3030       C  0.24402076  0.52312472  0.49214081     0.14200
F3031       F  0.25257017  0.55628604  0.50355516    -0.13100
F3032       F  0.22400899  0.51488466  0.48306630    -0.13600
F3033       F  0.22732209  0.56028933  0.49557810    -0.15900
F3034       F  0.24945270  0.51097771  0.49106686    -0.14400
F3035       F  0.25643819  0.52597862  0.52332434    -0.14400
F3036       F  0.29910547  0.53654318  0.49144601    -0.15900
C3037       C  0.27067386  0.33542807  0.24936792     0.14200
C3038       C  0.26746797  0.34662420  0.25687132     0.01200
C3039       C  0.26894010  0.34604725  0.27063732     0.16100
C3040       C  0.27371818  0.33464686  0.27673266     0.25600
C3041       C  0.27693659  0.32344032  0.26924037    -0.40800
C3042       C  0.27526910  0.32395065  0.25547848     0.32600
C3043       C  0.26285772  0.35896528  0.25037455     0.01200
F3044       F  0.26564929  0.35653041  0.27823961    -0.13100
F3045       F  0.27792360  0.31325712  0.24791805    -0.13600
C3046       C  0.25203290  0.35885992  0.24172918     0.16200
C3047       C  0.24766801  0.37051727  0.23577188     0.25600
C3048       C  0.25397130  0.38261617  0.23838753    -0.40700
C3049       C  0.26492438  0.38263755  0.24691875     0.32500
C3050       C  0.26930285  0.37097723  0.25279964     0.14200
F3051       F  0.24541253  0.34750237  0.23931745    -0.13100
F3052       F  0.27171504  0.39388331  0.24933470    -0.13600
F3053       F  0.23697360  0.36995505  0.22779636    -0.15900
F3054       F  0.28007928  0.37139716  0.26068995    -0.14400
F3055       F  0.26963291  0.33568193  0.23605427    -0.14400
F3056       F  0.27553173  0.33470788  0.28996447    -0.15900
C3057       C  0.24768331  0.68675818  0.27176580     0.14200
C3058       C  0.25948805  0.68733787  0.26457665     0.01200
C3059       C  0.26677712  0.67574643  0.26274011     0.16100
C3060       C  0.26238887  0.66379384  0.26799012     0.25600
C3061       C  0.25050489  0.66311215  0.27515639    -0.40800
C3062       C  0.24321079  0.67478183  0.27697609     0.32600
C3063       C  0.26417302  0.69994257  0.25880506     0.01200
F3064       F  0.27834475  0.67605212  0.25604455    -0.13100
F3065       F  0.23153250  0.67458919  0.28345949    -0.13600
C3066       C  0.26720267  0.71078114  0.26687858     0.16200
C3067       C  0.27206835  0.72248211  0.26138524     0.25600
C3068       C  0.27392435  0.72357807  0.24769069    -0.40700
C3069       C  0.27073231  0.71273349  0.23964355     0.32500
C3070       C  0.26592267  0.70106970  0.24514207     0.14200
F3071       F  0.26567644  0.70994089  0.28012044    -0.13100
F3072       F  0.27256640  0.71329784  0.22642332    -0.13600
F3073       F  0.27474630  0.73280740  0.26943515    -0.15900
F3074       F  0.26289030  0.69084848  0.23708030    -0.14400
F3075       F  0.24029885  0.69775562  0.27345611    -0.14400
F3076       F  0.27006387  0.65299789  0.26637111    -0.15900
C3077       C  0.18725517  0.60688031  0.37031512     0.14200
C3078       C  0.19100731  0.59670444  0.37885111     0.01200
C3079       C  0.20275093  0.58988831  0.37642161     0.16100
C3080       C  0.21054543  0.59299719  0.36553841     0.25600
C3081       C  0.20666037  0.60290327  0.35661925    -0.40800
C3082       C  0.19495513  0.60991562  0.35924251     0.32600
C3083       C  0.18299307  0.59319699  0.39052548     0.01200
F3084       F  0.20680202  0.58029374  0.38477695    -0.13100
F3085       F  0.19067477  0.61940634  0.35091351    -0.13600
C3086       C  0.17716480  0.58067607  0.39142930     0.16200
C3087       C  0.17156468  0.57641687  0.40328151     0.25600
C3088       C  0.17192453  0.58454061  0.41447004    -0.40700
C3089       C  0.17712346  0.59732684  0.41335794     0.32500
C3090       C  0.18250482  0.60167108  0.40143251     0.14200
F3091       F  0.17751526  0.57232964  0.38099860    -0.13100
F3092       F  0.17748735  0.60540175  0.42400056    -0.13600
F3093       F  0.16682670  0.56395566  0.40412016    -0.15900
F3094       F  0.18805731  0.61380752  0.40078912    -0.14400
F3095       F  0.17596769  0.61366325  0.37253991    -0.14400
F3096       F  0.22206662  0.58643182  0.36398126    -0.15900
C3097       C  0.25661351  0.53718770  0.26086765     0.14200
C3098       C  0.24672603  0.52822973  0.26455011     0.01200
C3099       C  0.23766100  0.53183623  0.27433195     0.16100
C3100       C  0.23833413  0.54424576  0.28023142     0.25600
C3101       C  0.24807311  0.55335351  0.27641224    -0.40800
C3102       C  0.25721979  0.54970508  0.26667750     0.32600
C3103       C  0.24528292  0.51544211  0.25766778     0.01200
F3104       F  0.22806073  0.52333165  0.27810214    -0.13100
F3105       F  0.26683337  0.55818936  0.26291627    -0.13600
C3106       C  0.25479133  0.50551314  0.25898937     0.16200
C3107       C  0.25319580  0.49340690  0.25252900     0.25600
C3108       C  0.24204964  0.49103793  0.24458421    -0.40700
C3109       C  0.23253786  0.50106619  0.24335971     0.32500
C3110       C  0.23416059  0.51310468  0.24982622     0.14200
F3111       F  0.26553771  0.50749063  0.26668214    -0.13100
F3112       F  0.22142091  0.49916225  0.23620701    -0.13600
F3113       F  0.26272078  0.48415106  0.25383456    -0.15900
F3114       F  0.22485345  0.52257352  0.24837719    -0.14400
F3115       F  0.26546687  0.53391550  0.25141154    -0.14400
F3116       F  0.22909728  0.54752318  0.28931560    -0.15900
C3117       C  0.43155992  0.53342622  0.01974350     0.14200
C3118       C  0.43167222  0.52947430  0.00645333     0.01200
C3119       C  0.44345443  0.53071655  0.99924678     0.16100
C3120       C  0.45487801  0.53568401  0.00521375     0.25600
C3121       C  0.45478442  0.53947122  0.01852604    -0.40800
C3122       C  0.44300258  0.53835243  0.02571177     0.32600
C3123       C  0.41956801  0.52403692  0.00011196     0.01200
F3124       F  0.44384340  0.52731526  0.98633272    -0.13100
F3125       F  0.44251793  0.54229547  0.03846917    -0.13600
C3126       C  0.40773781  0.53123252  0.00010637     0.16200
C3127       C  0.39637525  0.52608855  0.99418186     0.25600
C3128       C  0.39662072  0.51371539  0.98792773    -0.40700
C3129       C  0.40846946  0.50655609  0.98784740     0.32500
C3130       C  0.41977935  0.51160793  0.99397698     0.14200
F3131       F  0.40724105  0.54340045  0.00560445    -0.13100
F3132       F  0.40899060  0.49443100  0.98226918    -0.13600
F3133       F  0.38520354  0.53340797  0.99425197    -0.15900
F3134       F  0.43087804  0.50418260  0.99422517    -0.14400
F3135       F  0.42040524  0.53233855  0.02702466    -0.14400
F3136       F  0.46610550  0.53663402  0.99802574    -0.15900
C3137       C  0.34501358  0.44652714  0.89063046     0.14200
C3138       C  0.33236575  0.44752843  0.88505984     0.01200
C3139       C  0.32297071  0.45557908  0.89121595     0.16100
C3140       C  0.32603877  0.46233207  0.90280051     0.25600
C3141       C  0.33857713  0.46111951  0.90860995    -0.40800
C3142       C  0.34810320  0.45328443  0.90230803     0.32600
C3143       C  0.32905273  0.44114687  0.87230774     0.01200
F3144       F  0.31085801  0.45717605  0.88579229    -0.13100
F3145       F  0.36023079  0.45177947  0.90769229    -0.13600
C3146       C  0.31828093  0.43246288  0.87129638     0.16200
C3147       C  0.31339130  0.42874620  0.85891550     0.25600
C3148       C  0.31911613  0.43381129  0.84737042    -0.40700
C3149       C  0.33060259  0.44151316  0.84843865     0.32500
C3150       C  0.33552948  0.44512400  0.86077890     0.14200
F3151       F  0.31210848  0.42810965  0.88231583    -0.13100
F3152       F  0.33679674  0.44598910  0.83748361    -0.13600
F3153       F  0.30246949  0.42106745  0.85827859    -0.15900
F3154       F  0.34606224  0.45332863  0.86143602    -0.14400
F3155       F  0.35427830  0.43880335  0.88489571    -0.14400
F3156       F  0.31677808  0.47032848  0.90817184    -0.15900
C3157       C  0.10344186  0.51485738  0.00155459     0.14200
C3158       C  0.09208713  0.51694160  0.00917228     0.01200
C3159       C  0.09229551  0.51341273  0.02253460     0.16100
C3160       C  0.10374688  0.50821127  0.02826385     0.25600
C3161       C  0.11526109  0.50631407  0.02070986    -0.40800
C3162       C  0.11486567  0.50955058  0.00721464     0.32600
C3163       C  0.08010237  0.52292552  0.00319039     0.01200
F3164       F  0.08148052  0.51534515  0.03014420    -0.13100
F3165       F  0.12541940  0.50727460  0.99934988    -0.13600
C3166       C  0.06842642  0.51559718  0.00188629     0.16200
C3167       C  0.05726205  0.52115489  0.99595309     0.25600
C3168       C  0.05748035  0.53422616  0.99135715    -0.40700
C3169       C  0.06910389  0.54162222  0.99287039     0.32500
C3170       C  0.08032647  0.53599344  0.99864037     0.14200
F3171       F  0.06792680  0.50294851  0.00612708    -0.13100
F3172       F  0.06971181  0.55418842  0.98840787    -0.13600
F3173       F  0.04616330  0.51379070  0.99479310    -0.15900
F3174       F  0.09143761  0.54332701  0.99984695    -0.14400
F3175       F  0.10339229  0.51778659  0.98852670    -0.14400
F3176       F  0.10364798  0.50548661  0.04132781    -0.15900
C3177       C  0.18557819  0.43046014  0.14347389     0.14200
C3178       C  0.18638047  0.44240915  0.13655734     0.01200
C3179       C  0.19416861  0.45260745  0.14165421     0.16100
C3180       C  0.20104329  0.45097126  0.15342470     0.25600
C3181       C  0.20014115  0.43912068  0.16056966    -0.40800
C3182       C  0.19235912  0.42883286  0.15541525     0.32600
C3183       C  0.17995164  0.44418475  0.12356852     0.01200
F3184       F  0.19550044  0.46407535  0.13494239    -0.13100
F3185       F  0.19107282  0.41731231  0.16202623    -0.13600
C3186       C  0.17076883  0.45434630  0.12162532     0.16200
C3187       C  0.16653324  0.45761736  0.10891649     0.25600
C3188       C  0.17149452  0.45081772  0.09789906    -0.40700
C3189       C  0.18012620  0.44016430  0.09997776     0.32500
C3190       C  0.18427638  0.43687127  0.11268308     0.14200
F3191       F  0.16634815  0.46148493  0.13202230    -0.13100
F3192       F  0.18486858  0.43312920  0.08965655    -0.13600
F3193       F  0.15834670  0.46804336  0.10738229    -0.15900
F3194       F  0.19319649  0.42706302  0.11427193    -0.14400
F3195       F  0.17812303  0.42043367  0.13872337    -0.14400
F3196       F  0.20902565  0.46088014  0.15749693    -0.15900
C3197       C  0.26503637  0.49555824  0.99090536     0.14200
C3198       C  0.26350385  0.49700400  0.00453680     0.01200
C3199       C  0.27470865  0.49850325  0.01249021     0.16100
C3200       C  0.28733540  0.49808366  0.00690421     0.25600
C3201       C  0.28891093  0.49610786  0.99327231    -0.40800
C3202       C  0.27759004  0.49516946  0.98530280     0.32600
C3203       C  0.25025295  0.49564575  0.01041852     0.01200
F3204       F  0.27342941  0.49973110  0.02572688    -0.13100
F3205       F  0.27862200  0.49387341  0.97204922    -0.13600
C3206       C  0.24431966  0.48319478  0.01083109     0.16200
C3207       C  0.23155882  0.48170443  0.01571465     0.24000
C3208       C  0.22440678  0.49267804  0.02022055    -0.40700
C3209       C  0.23036192  0.50518860  0.01982412     0.32500
C3210       C  0.24326032  0.50664057  0.01503403     0.14200
F3211       F  0.25093041  0.47244353  0.00644543    -0.13100
F3212       F  0.22384309  0.51591736  0.02437561    -0.13600
F3213       F  0.22605829  0.46952774  0.01568826    -0.15900
F3214       F  0.24888061  0.51875734  0.01475793    -0.14400
F3215       F  0.25431090  0.49423304  0.98304053    -0.14400
F3216       F  0.29798423  0.49885029  0.01492981    -0.15900
loop_ 
_geom_bond_atom_site_label_1 
_geom_bond_atom_site_label_2 
_geom_bond_distance 
_geom_bond_site_symmetry_2 
_ccdc_geom_bond_type 
N1            N2   1.320       .  A
N1            C5   1.350       .  A
N1           Cu9   2.095       .  S
N2            C3   1.341       .  A
N2           Cu8   2.057       .  S
C3            C4   1.383       .  A
C3            H6   1.082       .  S
C4            C5   1.393       .  A
C4         C3188   1.488       .  S
C5            H7   1.081       .  S
Cu8          N11   2.057       .  S
Cu9          N19   2.097       .  S
Cu10         N12   2.098       .  S
Cu10         N18   2.100       .  S
N11          N12   1.321       .  A
N11          C15   1.341       .  A
N12          C13   1.352       .  A
C13          C14   1.391       .  A
C13          H16   1.082       .  S
C14          C15   1.381       .  A
C14        C3208   1.483       .  S
C15          H17   1.082       .  S
N18          N19   1.325       .  A
N18          C22   1.348       .  A
N19          C20   1.349       .  A
C20          C21   1.390       .  A
C20          H23   1.081       .  S
C21          C22   1.391       .  A
C21        C3161   1.498       .  S
C22          H24   1.081       .  S
N25          N26   1.321       .  A
N25          C29   1.354       .  A
N25         Cu33   2.109       .  S
N26          C27   1.339       .  A
N26         Cu32   2.052       .  S
C27          C28   1.379       .  A
C27          H30   1.082       .  S
C28          C29   1.395       .  A
C28        C3141   1.487       .  S
C29          H31   1.082       .  S
Cu32         N35   2.053       .  S
Cu33         N43   2.111       .  S
Cu34         N36   2.081       .  S
Cu34         N42   2.084       .  S
N35          N36   1.318       .  A
N35          C39   1.341       .  A
N36          C37   1.349       .  A
C37          C38   1.391       .  A
C37          H40   1.081       .  S
C38          C39   1.384       .  A
C38        C3201   1.485       .  S
C39          H41   1.081       .  S
N42          N43   1.326       .  A
N42          C46   1.345       .  A
N43          C44   1.351       .  A
C44          C45   1.390       .  A
C44          H47   1.082       .  S
C45          C46   1.383       .  A
C45        C3128   1.489       .  S
C46          H48   1.083       .  S
N49          N50   1.320       .  A
N49          C53   1.351       .  A
N49         Cu57   2.092       .  S
N50          C51   1.339       .  A
N50         Cu56   2.057       .  S
C51          C52   1.385       .  A
C51          H54   1.081       .  S
C52          C53   1.395       .  A
C52        C3081   1.493       .  S
C53          H55   1.081       .  S
Cu56         N59   2.056       .  S
Cu57         N67   2.094       .  S
Cu58         N60   2.089       .  S
Cu58         N66   2.091       .  S
N59          N60   1.320       .  A
N59          C63   1.341       .  A
N60          C61   1.350       .  A
C61          C62   1.391       .  A
C61          H64   1.082       .  S
C62          C63   1.382       .  A
C62        C3101   1.483       .  S
C63          H65   1.082       .  S
N66          N67   1.325       .  A
N66          C70   1.346       .  A
N67          C68   1.348       .  A
C68          C69   1.389       .  A
C68          H71   1.081       .  S
C69          C70   1.388       .  A
C69        C3061   1.493       .  S
C70          H72   1.081       .  S
N73          N74   1.321       .  A
N73          C77   1.351       .  A
N73         Cu81   2.094       .  S
N74          C75   1.341       .  A
N74         Cu80   2.068       .  S
C75          C76   1.385       .  A
C75          H78   1.081       .  S
C76          C77   1.392       .  A
C76        C3181   1.490       .  S
C77          H79   1.081       .  S
Cu80         N83   2.068       .  S
Cu81         N91   2.095       .  S
Cu82         N84   2.086       .  S
Cu82         N90   2.087       .  S
N83          N84   1.320       .  A
N83          C87   1.343       .  A
N84          C85   1.348       .  A
C85          C86   1.391       .  A
C85          H88   1.081       .  S
C86          C87   1.387       .  A
C86        C3108   1.491       .  S
C87          H89   1.081       .  S
N90          N91   1.324       .  A
N90          C94   1.346       .  A
N91          C92   1.348       .  A
C92          C93   1.391       .  A
C92          H95   1.081       .  S
C93          C94   1.389       .  A
C93        C3048   1.495       .  S
C94          H96   1.081       .  S
N97          N98   1.321       .  A
N97         C101   1.357       .  A
N97        Cu105   2.122       .  S
N98          C99   1.341       .  A
N98        Cu104   2.059       .  S
C99         C100   1.382       .  A
C99         H102   1.081       .  S
C100        C101   1.398       .  A
C100       C3001   1.495       .  S
C101        H103   1.081       .  S
Cu104       N107   2.059       .  S
Cu105       N115   2.124       .  S
Cu106       N108   2.091       .  S
Cu106       N114   2.094       .  S
N107        N108   1.319       .  A
N107        C111   1.340       .  A
N108        C109   1.352       .  A
C109        C110   1.393       .  A
C109        H112   1.081       .  S
C110        C111   1.383       .  A
C110       C3021   1.487       .  S
C111        H113   1.081       .  S
N114        N115   1.326       .  A
N114        C118   1.346       .  A
N115        C116   1.353       .  A
C116        C117   1.396       .  A
C116        H119   1.080       .  S
C117        C118   1.389       .  A
C117       C2981   1.504       .  S
C118        H120   1.081       .  S
N121        N122   1.321       .  A
N121        C125   1.351       .  A
N121       Cu129   2.097       .  S
N122        C123   1.342       .  A
N122       Cu128   2.061       .  S
C123        C124   1.380       .  A
C123        H126   1.082       .  S
C124        C125   1.391       .  A
C124       C3088   1.479       .  S
C125        H127   1.081       .  S
Cu128       N131   2.062       .  S
Cu129       N139   2.098       .  S
Cu130       N132   2.093       .  S
Cu130       N138   2.095       .  S
N131        N132   1.321       .  A
N131        C135   1.342       .  A
N132        C133   1.351       .  A
C133        C134   1.390       .  A
C133        H136   1.082       .  S
C134        C135   1.381       .  A
C134       C3028   1.481       .  S
C135        H137   1.082       .  S
N138        N139   1.324       .  A
N138        C142   1.347       .  A
N139        C140   1.349       .  A
C140        C141   1.391       .  A
C140        H143   1.081       .  S
C141        C142   1.389       .  A
C141       C2961   1.496       .  S
C142        H144   1.081       .  S
N145        N146   1.320       .  A
N145        C149   1.356       .  A
N145       Cu153   2.114       .  S
N146        C147   1.339       .  A
N146       Cu152   2.062       .  S
C147        C148   1.385       .  A
C147        H150   1.080       .  S
C148        C149   1.399       .  A
C148       C3008   1.500       .  S
C149        H151   1.081       .  S
Cu152       N155   2.062       .  S
Cu153       N163   2.116       .  S
Cu154       N156   2.094       .  S
Cu154       N162   2.097       .  S
N155        N156   1.319       .  A
N155        C159   1.341       .  A
N156        C157   1.352       .  A
C157        C158   1.393       .  A
C157        H160   1.082       .  S
C158        C159   1.383       .  A
C158       C2941   1.488       .  S
C159        H161   1.082       .  S
N162        N163   1.328       .  A
N162        C166   1.347       .  A
N163        C164   1.352       .  A
C164        C165   1.389       .  A
C164        H167   1.082       .  S
C165        C166   1.384       .  A
C165       C2921   1.490       .  S
C166        H168   1.082       .  S
N169        N170   1.320       .  A
N169        C173   1.352       .  A
N169       Cu177   2.093       .  S
N170        C171   1.341       .  A
N170       Cu176   2.061       .  S
C171        C172   1.383       .  A
C171        H174   1.082       .  S
C172        C173   1.392       .  A
C172       C3148   1.486       .  S
C173        H175   1.081       .  S
Cu176       N179   2.062       .  S
Cu177       N187   2.094       .  S
Cu178       N180   2.106       .  S
Cu178       N186   2.107       .  S
N179        N180   1.322       .  A
N179        C183   1.342       .  A
N180        C181   1.352       .  A
C181        C182   1.393       .  A
C181        H184   1.081       .  S
C182        C183   1.381       .  A
C182       C2948   1.487       .  S
C183        H185   1.081       .  S
N186        N187   1.326       .  A
N186        C190   1.351       .  A
N187        C188   1.347       .  A
C188        C189   1.385       .  A
C188        H191   1.081       .  S
C189        C190   1.390       .  A
C189       C2901   1.490       .  S
C190        H192   1.081       .  S
N193        N194   1.319       .  A
N193        C197   1.352       .  A
N193       Cu201   2.102       .  S
N194        C195   1.338       .  A
N194       Cu200   2.048       .  S
C195        C196   1.383       .  A
C195        H198   1.081       .  S
C196        C197   1.396       .  A
C196       C2861   1.492       .  S
C197        H199   1.081       .  S
Cu200       N203   2.047       .  S
Cu201       N211   2.104       .  S
Cu202       N204   2.078       .  S
Cu202       N210   2.081       .  S
N203        N204   1.319       .  A
N203        C207   1.338       .  A
N204        C205   1.349       .  A
C205        C206   1.388       .  A
C205        H208   1.082       .  S
C206        C207   1.380       .  A
C206       C2888   1.474       .  S
C207        H209   1.082       .  S
N210        N211   1.325       .  A
N210        C214   1.344       .  A
N211        C212   1.349       .  A
C212        C213   1.391       .  A
C212        H215   1.081       .  S
C213        C214   1.386       .  A
C213       C2841   1.493       .  S
C214        H216   1.081       .  S
N217        N218   1.321       .  A
N217        C221   1.357       .  A
N217       Cu225   2.120       .  S
N218        C219   1.337       .  A
N218       Cu224   2.040       .  S
C219        C220   1.375       .  A
C219        H222   1.082       .  S
C220        C221   1.396       .  A
C220       C2828   1.482       .  S
C221        H223   1.081       .  S
Cu224       N227   2.039       .  S
Cu225       N235   2.122       .  S
Cu226       N228   2.080       .  S
Cu226       N234   2.084       .  S
N227        N228   1.317       .  A
N227        C231   1.340       .  A
N228        C229   1.346       .  A
C229        C230   1.391       .  A
C229        H232   1.081       .  S
C230        C231   1.381       .  A
C230       C2881   1.480       .  S
C231        H233   1.081       .  S
N234        N235   1.326       .  A
N234        C238   1.345       .  A
N235        C236   1.353       .  A
C236        C237   1.393       .  A
C236        H239   1.081       .  S
C237        C238   1.385       .  A
C237       C2801   1.496       .  S
C238        H240   1.081       .  S
N241        N242   1.320       .  A
N241        C245   1.350       .  A
N241       Cu249   2.082       .  S
N242        C243   1.342       .  A
N242       Cu248   2.065       .  S
C243        C244   1.383       .  A
C243        H246   1.082       .  S
C244        C245   1.390       .  A
C244       C2868   1.483       .  S
C245        H247   1.081       .  S
Cu248       N251   2.065       .  S
Cu249       N259   2.083       .  S
Cu250       N252   2.082       .  S
Cu250       N258   2.083       .  S
N251        N252   1.319       .  A
N251        C255   1.340       .  A
N252        C253   1.349       .  A
C253        C254   1.393       .  A
C253        H256   1.081       .  S
C254        C255   1.387       .  A
C254       C2781   1.493       .  S
C255        H257   1.080       .  S
N258        N259   1.323       .  A
N258        C262   1.343       .  A
N259        C260   1.343       .  A
C260        C261   1.392       .  A
C260        H263   1.083       .  S
C261        C262   1.390       .  A
C261       C2761   1.499       .  S
C262        H264   1.087       .  S
N265        N266   1.322       .  A
N265        C269   1.350       .  A
N265       Cu273   2.094       .  S
N266        C267   1.343       .  A
N266       Cu272   2.070       .  S
C267        C268   1.382       .  A
C267        H270   1.082       .  S
C268        C269   1.389       .  A
C268       C2748   1.482       .  S
C269        H271   1.081       .  S
Cu272       N275   2.070       .  S
Cu273       N283   2.095       .  S
Cu274       N276   2.074       .  S
Cu274       N282   2.075       .  S
N275        N276   1.320       .  A
N275        C279   1.342       .  A
N276        C277   1.347       .  A
C277        C278   1.390       .  A
C277        H280   1.081       .  S
C278        C279   1.388       .  A
C278       C2788   1.489       .  S
C279        H281   1.081       .  S
N282        N283   1.323       .  A
N282        C286   1.345       .  A
N283        C284   1.348       .  A
C284        C285   1.390       .  A
C284        H287   1.081       .  S
C285        C286   1.385       .  A
C285       C2721   1.489       .  S
C286        H288   1.081       .  S
N289        N290   1.318       .  A
N289        C293   1.351       .  A
N289       Cu297   2.098       .  S
N290        C291   1.337       .  A
N290       Cu296   2.047       .  S
C291        C292   1.385       .  A
C291        H294   1.079       .  S
C292        C293   1.399       .  A
C292       C2681   1.497       .  S
C293        H295   1.080       .  S
Cu296       N299   2.047       .  S
Cu297       N307   2.100       .  S
Cu298       N300   2.081       .  S
Cu298       N306   2.083       .  S
N299        N300   1.318       .  A
N299        C303   1.339       .  A
N300        C301   1.349       .  A
C301        C302   1.391       .  A
C301        H304   1.081       .  S
C302        C303   1.382       .  A
C302       C2708   1.481       .  S
C303        H305   1.082       .  S
N306        N307   1.326       .  A
N306        C310   1.343       .  A
N307        C308   1.350       .  A
C308        C309   1.388       .  A
C308        H311   1.081       .  S
C309        C310   1.383       .  A
C309       C2661   1.486       .  S
C310        H312   1.082       .  S
N313        N314   1.322       .  A
N313        C317   1.353       .  A
N313       Cu321   2.104       .  S
N314        C315   1.341       .  A
N314       Cu320   2.064       .  S
C315        C316   1.382       .  A
C315        H318   1.081       .  S
C316        C317   1.393       .  A
C316       C2821   1.489       .  S
C317        H319   1.081       .  S
Cu320       N323   2.063       .  S
Cu321       N331   2.105       .  S
Cu322       N324   2.076       .  S
Cu322       N330   2.078       .  S
N323        N324   1.319       .  A
N323        C327   1.342       .  A
N324        C325   1.347       .  A
C325        C326   1.390       .  A
C325        H328   1.082       .  S
C326        C327   1.386       .  A
C326       C2701   1.486       .  S
C327        H329   1.081       .  S
N330        N331   1.322       .  A
N330        C334   1.344       .  A
N331        C332   1.348       .  A
C332        C333   1.397       .  A
C332        H335   1.079       .  S
C333        C334   1.390       .  A
C333       C2641   1.504       .  S
C334        H336   1.080       .  S
N337        N338   1.320       .  A
N337        C341   1.351       .  A
N337       Cu345   2.095       .  S
N338        C339   1.340       .  A
N338       Cu344   2.051       .  S
C339        C340   1.382       .  A
C339        H342   1.081       .  S
C340        C341   1.392       .  A
C340       C2688   1.485       .  S
C341        H343   1.081       .  S
Cu344       N347   2.052       .  S
Cu345       N355   2.097       .  S
Cu346       N348   2.090       .  S
Cu346       N354   2.093       .  S
N347        N348   1.319       .  A
N347        C351   1.339       .  A
N348        C349   1.351       .  A
C349        C350   1.394       .  A
C349        H352   1.081       .  S
C350        C351   1.383       .  A
C350       C2628   1.487       .  S
C351        H353   1.081       .  S
N354        N355   1.326       .  A
N354        C358   1.346       .  A
N355        C356   1.350       .  A
C356        C357   1.388       .  A
C356        H359   1.081       .  S
C357        C358   1.386       .  A
C357       C2601   1.490       .  S
C358        H360   1.081       .  S
N361        N362   1.322       .  A
N361        C365   1.350       .  A
N361       Cu369   2.094       .  S
N362        C363   1.342       .  A
N362       Cu368   2.058       .  S
C363        C364   1.378       .  A
C363        H366   1.081       .  S
C364        C365   1.389       .  A
C364       C2741   1.474       .  S
C365        H367   1.081       .  S
Cu368       N371   2.059       .  S
Cu369       N379   2.096       .  S
Cu370       N372   2.091       .  S
Cu370       N378   2.092       .  S
N371        N372   1.321       .  A
N371        C375   1.342       .  A
N372        C373   1.349   1_565  A
C373        C374   1.390   1_545  A
C373        H376   1.081       .  S
C374        C375   1.383       .  A
C374       C2621   1.485   1_565  S
C375        H377   1.081       .  S
N378        N379   1.324       .  A
N378        C382   1.348   1_565  A
N379        C380   1.347       .  A
C380        C381   1.390       .  A
C380        H383   1.081       .  S
C381        C382   1.390   1_565  A
C381       C2581   1.497   1_565  S
C382        H384   1.081       .  S
N385        N386   1.320       .  A
N385        C389   1.353       .  A
N385       Cu393   2.104       .  S
N386        C387   1.338       .  A
N386       Cu392   2.045       .  S
C387        C388   1.380       .  A
C387        H390   1.081       .  S
C388        C389   1.396       .  A
C388       C2541   1.487       .  S
C389        H391   1.082       .  S
Cu392       N395   2.046       .  S
Cu393       N403   2.106       .  S
Cu394       N396   2.086       .  S
Cu394       N402   2.089       .  S
N395        N396   1.318       .  A
N395        C399   1.339       .  A
N396        C397   1.349       .  A
C397        C398   1.394       .  A
C397        H400   1.081       .  S
C398        C399   1.384       .  A
C398       C2561   1.489       .  S
C399        H401   1.080       .  S
N402        N403   1.325       .  A
N402        C406   1.346       .  A
N403        C404   1.349       .  A
C404        C405   1.391       .  A
C404        H407   1.081       .  S
C405        C406   1.388       .  A
C405       C2521   1.496       .  S
C406        H408   1.081       .  S
N409        N410   1.320       .  A
N409        C413   1.353       .  A
N409       Cu417   2.110       .  S
N410        C411   1.342       .  A
N410       Cu416   2.061       .  S
C411        C412   1.386       .  A
C411        H414   1.081       .  S
C412        C413   1.399       .  A
C412       C2501   1.500       .  S
C413        H415   1.080       .  S
Cu416       N419   2.061       .  S
Cu417       N427   2.111       .  S
Cu418       N420   2.077       .  S
Cu418       N426   2.080       .  S
N419        N420   1.320       .  A
N419        C423   1.341       .  A
N420        C421   1.348       .  A
C421        C422   1.387       .  A
C421        H424   1.082       .  S
C422        C423   1.382       .  A
C422       C2568   1.478       .  S
C423        H425   1.082       .  S
N426        N427   1.325       .  A
N426        C430   1.345       .  A
N427        C428   1.350       .  A
C428        C429   1.392       .  A
C428        H431   1.081       .  S
C429        C430   1.385       .  A
C429       C2481   1.493       .  S
C430        H432   1.081       .  S
N433        N434   1.321       .  A
N433        C437   1.350       .  A
N433       Cu441   2.081       .  S
N434        C435   1.341       .  A
N434       Cu440   2.067       .  S
C435        C436   1.382       .  A
C435        H438   1.082       .  S
C436        C437   1.389       .  A
C436       C2441   1.480       .  S
C437        H439   1.081       .  S
Cu440       N443   2.067       .  S
Cu441       N451   2.082       .  S
Cu442       N444   2.089       .  S
Cu442       N450   2.090       .  S
N443        N444   1.321       .  A
N443        C447   1.343       .  A
N444        C445   1.349       .  A
C445        C446   1.391       .  A
C445        H448   1.082       .  S
C446        C447   1.384       .  A
C446       C2468   1.487       .  S
C447        H449   1.082       .  S
N450        N451   1.325       .  A
N450        C454   1.347       .  A
N451        C452   1.346       .  A
C452        C453   1.383       .  A
C452        H455   1.082       .  S
C453        C454   1.384       .  A
C453       C2428   1.479       .  S
C454        H456   1.082       .  S
N457        N458   1.321       .  A
N457        C461   1.355       .  A
N457       Cu465   2.105       .  S
N458        C459   1.340       .  A
N458       Cu464   2.065       .  S
C459        C460   1.385       .  A
C459        H462   1.081       .  S
C460        C461   1.397       .  A
C460       C2508   1.496       .  S
C461        H463   1.081       .  S
Cu464       N467   2.066       .  S
Cu465       N475   2.107       .  S
Cu466       N468   2.086       .  S
Cu466       N474   2.088       .  S
N467        N468   1.319       .  A
N467        C471   1.342       .  A
N468        C469   1.349       .  A
C469        C470   1.394       .  A
C469        H472   1.080   1_655  S
C470        C471   1.388       .  A
C470       C2461   1.495       .  S
C471        H473   1.080       .  S
N474        N475   1.326       .  A
N474        C478   1.347       .  A
N475        C476   1.349       .  A
C476        C477   1.388       .  A
C476        H479   1.081       .  S
C477        C478   1.384       .  A
C477       C2401   1.488       .  S
C478        H480   1.081   1_655  S
N481        N482   1.322       .  A
N481        C485   1.356       .  A
N481       Cu489   2.115       .  S
N482        C483   1.338       .  A
N482       Cu488   2.046       .  S
C483        C484   1.375       .  A
C483        H486   1.082       .  S
C484        C485   1.395       .  A
C484       C2361   1.481       .  S
C485        H487   1.081       .  S
Cu488       N491   2.046       .  S
Cu489       N499   2.118       .  S
Cu490       N492   2.087       .  S
Cu490       N498   2.089       .  S
N491        N492   1.318       .  A
N491        C495   1.341       .  A
N492        C493   1.350       .  A
C493        C494   1.390       .  A
C493        H496   1.081       .  S
C494        C495   1.379       .  A
C494       C2381   1.477       .  S
C495        H497   1.082       .  S
N498        N499   1.327       .  A
N498        C502   1.345       .  A
N499        C500   1.353       .  A
C500        C501   1.390       .  A
C500        H503   1.081       .  S
C501        C502   1.382       .  A
C501       C2341   1.489       .  S
C502        H504   1.082       .  S
N505        N506   1.319       .  A
N505        C509   1.351       .  A
N505       Cu513   2.098       .  S
N506        C507   1.340       .  A
N506       Cu512   2.047       .  S
C507        C508   1.382       .  A
C507        H510   1.081       .  S
C508        C509   1.395       .  A
C508       C2548   1.488       .  S
C509        H511   1.081       .  S
Cu512       N515   2.048       .  S
Cu513       N523   2.101       .  S
Cu514       N516   2.101       .  S
Cu514       N522   2.104       .  S
N515        N516   1.320       .  A
N515        C519   1.339       .  A
N516        C517   1.353       .  A
C517        C518   1.394       .  A
C517        H520   1.081       .  S
C518        C519   1.381       .  A
C518       C2388   1.487       .  S
C519        H521   1.081       .  S
N522        N523   1.327       .  A
N522        C526   1.349       .  A
N523        C524   1.350       .  A
C524        C525   1.387       .  A
C524        H527   1.082       .  S
C525        C526   1.388       .  A
C525       C2321   1.491       .  S
C526        H528   1.082       .  S
N529        N530   1.321       .  A
N529        C533   1.354       .  A
N529       Cu537   2.106       .  S
N530        C531   1.339       .  A
N530       Cu536   2.057       .  S
C531        C532   1.381       .  A
C531        H534   1.081       .  S
C532        C533   1.395       .  A
C532       C2368   1.489       .  S
C533        H535   1.081       .  S
Cu536       N539   2.057       .  S
Cu537       N547   2.107       .  S
Cu538       N540   2.077       .  S
Cu538       N546   2.079       .  S
N539        N540   1.320       .  A
N539        C543   1.342       .  A
N540        C541   1.347       .  A
C541        C542   1.388       .  A
C541        H544   1.081       .  S
C542        C543   1.382       .  A
C542       C2301   1.477       .  S
C543        H545   1.081       .  S
N546        N547   1.326       .  A
N546        C550   1.346       .  A
N547        C548   1.349       .  A
C548        C549   1.389       .  A
C548        H551   1.081       .  S
C549        C550   1.384       .  A
C549       C2281   1.487       .  S
C550        H552   1.081       .  S
N553        N554   1.320       .  A
N553        C557   1.355       .  A
N553       Cu561   2.111       .  S
N554        C555   1.337       .  A
N554       Cu560   2.044       .  S
C555        C556   1.380       .  A
C555        H558   1.081       .  S
C556        C557   1.397       .  A
C556       C2448   1.489       .  S
C557        H559   1.081       .  S
Cu560       N563   2.045       .  S
Cu561       N571   2.113       .  S
Cu562       N564   2.083       .  S
Cu562       N570   2.086       .  S
N563        N564   1.318       .  A
N563        C567   1.339       .  A
N564        C565   1.349       .  A
C565        C566   1.391       .  A
C565        H568   1.082       .  S
C566        C567   1.381       .  A
C566       C2308   1.480       .  S
C567        H569   1.082       .  S
N570        N571   1.327       .  A
N570        C574   1.346       .  A
N571        C572   1.351       .  A
C572        C573   1.389       .  A
C572        H575   1.081       .  S
C573        C574   1.383       .  A
C573       C2261   1.488       .  S
C574        H576   1.081       .  S
N577        N578   1.320       .  A
N577        C581   1.353       .  A
N577       Cu585   2.101       .  S
N578        C579   1.340       .  A
N578       Cu584   2.056       .  S
C579        C580   1.381       .  A
C579        H582   1.082       .  S
C580        C581   1.395       .  A
C580       C2221   1.487       .  S
C581        H583   1.081       .  S
Cu584       N587   2.056       .  S
Cu585       N595   2.103       .  S
Cu586       N588   2.097       .  S
Cu586       N594   2.099       .  S
N587        N588   1.320       .  A
N587        C591   1.341       .  A
N588        C589   1.352       .  A
C589        C590   1.393       .  A
C589        H592   1.081       .  S
C590        C591   1.381       .  A
C590       C2248   1.485       .  S
C591        H593   1.081       .  S
N594        N595   1.326       .  A
N594        C598   1.349       .  A
N595        C596   1.348       .  A
C596        C597   1.389       .  A
C596        H599   1.081       .  S
C597        C598   1.388       .  A
C597       C2201   1.494       .  S
C598        H600   1.081       .  S
N601        N602   1.322       .  A
N601        C605   1.350       .  A
N601       Cu609   2.092       .  S
N602        C603   1.342       .  A
N602       Cu608   2.066       .  S
C603        C604   1.382       .  A
C603        H606   1.082       .  S
C604        C605   1.390       .  A
C604       C2181   1.483       .  S
C605        H607   1.082       .  S
Cu608       N611   2.067       .  S
Cu609       N619   2.093       .  S
Cu610       N612   2.080       .  S
Cu610       N618   2.082       .  S
N611        N612   1.321       .  A
N611        C615   1.343       .  A
N612        C613   1.348       .  A
C613        C614   1.387       .  A
C613        H616   1.082       .  S
C614        C615   1.383       .  A
C614       C2241   1.479       .  S
C615        H617   1.082       .  S
N618        N619   1.324       .  A
N618        C622   1.345       .  A
N619        C620   1.348       .  A
C620        C621   1.389       .  A
C620        H623   1.081       .  S
C621        C622   1.387       .  A
C621       C2161   1.490       .  S
C622        H624   1.081       .  S
N625        N626   1.320       .  A
N625        C629   1.355       .  A
N625       Cu633   2.117       .  S
N626        C627   1.338       .  A
N626       Cu632   2.039       .  S
C627        C628   1.379       .  A
C627        H630   1.081       .  S
C628        C629   1.398       .  A
C628       C2228   1.489       .  S
C629        H631   1.081       .  S
Cu632       N635   2.039       .  S
Cu633       N643   2.120       .  S
Cu634       N636   2.088   1_545  S
Cu634       N642   2.091       .  S
N635        N636   1.318       .  A
N635        C639   1.337       .  A
N636        C637   1.351   1_565  A
C637        C638   1.392   1_545  A
C637        H640   1.081       .  S
C638        C639   1.378       .  A
C638       C2141   1.477       .  S
C639        H641   1.082       .  S
N642        N643   1.327   1_545  A
N642        C646   1.346       .  A
N643        C644   1.351   1_565  A
C644        C645   1.393       .  A
C644        H647   1.081   1_545  S
C645        C646   1.386       .  A
C645       C2128   1.497       .  S
C646        H648   1.081       .  S
N649        N650   1.320       .  A
N649        C653   1.352       .  A
N649       Cu657   2.099       .  S
N650        C651   1.340       .  A
N650       Cu656   2.054       .  S
C651        C652   1.382       .  A
C651        H654   1.082       .  S
C652        C653   1.394       .  A
C652       C2101   1.487       .  S
C653        H655   1.081       .  S
Cu656       N659   2.054       .  S
Cu657       N667   2.101       .  S
Cu658       N660   2.079       .  S
Cu658       N666   2.081       .  S
N659        N660   1.319       .  A
N659        C663   1.340       .  A
N660        C661   1.348       .  A
C661        C662   1.390       .  A
C661        H664   1.081   1_565  S
C662        C663   1.382       .  A
C662       C2148   1.481       .  S
C663        H665   1.081       .  S
N666        N667   1.324       .  A
N666        C670   1.345   1_565  A
N667        C668   1.348       .  A
C668        C669   1.392   1_565  A
C668        H671   1.081       .  S
C669        C670   1.387       .  A
C669       C2088   1.495       .  S
C670        H672   1.081       .  S
N673        N674   1.322       .  A
N673        C677   1.350       .  A
N673       Cu681   2.097       .  S
N674        C675   1.341       .  A
N674       Cu680   2.064       .  S
C675        C676   1.382       .  A
C675        H678   1.081       .  S
C676        C677   1.393       .  A
C676       C2048   1.487       .  S
C677        H679   1.081       .  S
Cu680       N683   2.064       .  S
Cu681       N691   2.097       .  S
Cu682       N684   2.064       .  S
Cu682       N690   2.065       .  S
N683        N684   1.319       .  A
N683        C687   1.342       .  A
N684        C685   1.346       .  A
C685        C686   1.387       .  A
C685        H688   1.081       .  S
C686        C687   1.385       .  A
C686       C2068   1.481       .  S
C687        H689   1.082       .  S
N690        N691   1.323       .  A
N690        C694   1.341       .  A
N691        C692   1.349       .  A
C692        C693   1.392       .  A
C692        H695   1.081       .  S
C693        C694   1.383       .  A
C693       C2021   1.488       .  S
C694        H696   1.081       .  S
N697        N698   1.320       .  A
N697        C701   1.352       .  A
N697       Cu705   2.101       .  S
N698        C699   1.338       .  A
N698       Cu704   2.047       .  S
C699        C700   1.381       .  A
C699        H702   1.081       .  S
C700        C701   1.395       .  A
C700       C2108   1.487       .  S
C701        H703   1.081       .  S
Cu704       N707   2.048       .  S
Cu705       N715   2.104       .  S
Cu706       N708   2.093       .  S
Cu706       N714   2.097       .  S
N707        N708   1.318       .  A
N707        C711   1.338       .  A
N708        C709   1.352       .  A
C709        C710   1.395       .  A
C709        H712   1.081       .  S
C710        C711   1.382       .  A
C710       C2061   1.488       .  S
C711        H713   1.081       .  S
N714        N715   1.325       .  A
N714        C718   1.346       .  A
N715        C716   1.349       .  A
C716        C717   1.393       .  A
C716        H719   1.080       .  S
C717        C718   1.390       .  A
C717       C2001   1.501       .  S
C718        H720   1.080       .  S
N721        N722   1.320       .  A
N721        C725   1.353       .  A
N721       Cu729   2.096       .  S
N722        C723   1.338       .  A
N722       Cu728   2.050       .  S
C723        C724   1.378       .  A
C723        H726   1.082       .  S
C724        C725   1.392       .  A
C724       C2188   1.480       .  S
C725        H727   1.081       .  S
Cu728       N731   2.051       .  S
Cu729       N739   2.100       .  S
Cu730       N732   2.099       .  S
Cu730       N738   2.101       .  S
N731        N732   1.318       .  A
N731        C735   1.340       .  A
N732        C733   1.352       .  A
C733        C734   1.397       .  A
C733        H736   1.081       .  S
C734        C735   1.384       .  A
C734       C1981   1.493       .  S
C735        H737   1.081       .  S
N738        N739   1.327       .  A
N738        C742   1.348       .  A
N739        C740   1.349       .  A
C740        C741   1.386       .  A
C740        H743   1.082       .  S
C741        C742   1.385       .  A
C741       C1961   1.487       .  S
C742        H744   1.081       .  S
N745        N746   1.321       .  A
N745        C749   1.351       .  A
N745       Cu753   2.095       .  S
N746        C747   1.341       .  A
N746       Cu752   2.062       .  S
C747        C748   1.384       .  A
C747        H750   1.081       .  S
C748        C749   1.393       .  A
C748       C2041   1.490       .  S
C749        H751   1.081       .  S
Cu752       N755   2.062       .  S
Cu753       N763   2.097       .  S
Cu754       N756   2.090       .  S
Cu754       N762   2.092       .  S
N755        N756   1.321       .  A
N755        C759   1.343       .  A
N756        C757   1.350       .  A
C757        C758   1.388       .  A
C757        H760   1.081       .  S
C758        C759   1.381       .  A
C758       C1988   1.479       .  S
C759        H761   1.082       .  S
N762        N763   1.325       .  A
N762        C766   1.346       .  A
N763        C764   1.349       .  A
C764        C765   1.389       .  A
C764        H767   1.081       .  S
C765        C766   1.388       .  A
C765       C1948   1.493       .  S
C766        H768   1.081       .  S
C769        C770   1.406   1_545  A
C769        C774   1.408       .  A
C769       C2608   1.486       .  S
C770        C771   1.405       .  A
C770        H775   1.084       .  S
C771        C772   1.403       .  A
C771       C1928   1.482       .  S
C772        C773   1.402   1_565  A
C772        H776   1.084       .  S
C773        C774   1.408       .  A
C773       C1968   1.484       .  S
C774        H777   1.084       .  S
C778        C779   1.410       .  A
C778        C783   1.410       .  A
C778       C2348   1.498       .  S
C779        C780   1.408       .  A
C779        H784   1.083       .  S
C780        C781   1.407       .  A
C780       C2588   1.496       .  S
C781        C782   1.409       .  A
C781        H785   1.083       .  S
C782        C783   1.411       .  A
C782       C2121   1.500       .  S
C783        H786   1.083       .  S
N787        N788   1.321       .  A
N787        C791   1.354       .  A
N787       Cu795   2.106       .  S
N788        C789   1.338       .  A
N788       Cu794   2.058       .  S
C789        C790   1.383       .  A
C789        H792   1.080       .  S
C790        C791   1.397       .  A
C790       C1881   1.493       .  S
C791        H793   1.081       .  S
Cu794       N797   2.059       .  S
Cu795       N805   2.108       .  S
Cu796       N798   2.078       .  S
Cu796       N804   2.080       .  S
N797        N798   1.318       .  A
N797        C801   1.342       .  A
N798        C799   1.348       .  A
C799        C800   1.390       .  A
C799        H802   1.082       .  S
C800        C801   1.384       .  A
C800       C1901   1.483       .  S
C801        H803   1.082       .  S
N804        N805   1.326       .  A
N804        C808   1.343       .  A
N805        C806   1.351       .  A
C806        C807   1.391       .  A
C806        H809   1.081       .  S
C807        C808   1.384       .  A
C807       C1861   1.490       .  S
C808        H810   1.081       .  S
N811        N812   1.320       .  A
N811        C815   1.352       .  A
N811       Cu819   2.095       .  S
N812        C813   1.339       .  A
N812       Cu818   2.049       .  S
C813        C814   1.382       .  A
C813        H816   1.081       .  S
C814        C815   1.394       .  A
C814       C1841   1.487       .  S
C815        H817   1.081       .  S
Cu818       N821   2.051       .  S
Cu819       N829   2.097       .  S
Cu820       N822   2.089       .  S
Cu820       N828   2.092       .  S
N821        N822   1.319       .  A
N821        C825   1.339       .  A
N822        C823   1.351       .  A
C823        C824   1.393       .  A
C823        H826   1.081       .  S
C824        C825   1.382       .  A
C824       C1908   1.485       .  S
C825        H827   1.081       .  S
N828        N829   1.326       .  A
N828        C832   1.347       .  A
N829        C830   1.348       .  A
C830        C831   1.388       .  A
C830        H833   1.082       .  S
C831        C832   1.387       .  A
C831       C1828   1.491       .  S
C832        H834   1.082       .  S
N835        N836   1.321       .  A
N835        C839   1.351       .  A
N835       Cu843   2.087       .  S
N836        C837   1.340       .  A
N836       Cu842   2.055       .  S
C837        C838   1.379       .  A
C837        H840   1.082       .  S
C838        C839   1.390       .  A
C838       C1888   1.478       .  S
C839        H841   1.082       .  S
Cu842       N845   2.055       .  S
Cu843       N853   2.089       .  S
Cu844       N846   2.092       .  S
Cu844       N852   2.095       .  S
N845        N846   1.319       .  A
N845        C849   1.339       .  A
N846        C847   1.351       .  A
C847        C848   1.396       .  A
C847        H850   1.081       .  S
C848        C849   1.386       .  A
C848       C1808   1.493       .  S
C849        H851   1.080       .  S
N852        N853   1.325       .  A
N852        C856   1.347       .  A
N853        C854   1.347       .  A
C854        C855   1.387       .  A
C854        H857   1.081       .  S
C855        C856   1.388       .  A
C855       C1781   1.490       .  S
C856        H858   1.081       .  S
N859        N860   1.321       .  A
N859        C863   1.350       .  A
N859       Cu867   2.088       .  S
N860        C861   1.340       .  A
N860       Cu866   2.060       .  S
C861        C862   1.380       .  A
C861        H864   1.082       .  S
C862        C863   1.391       .  A
C862       C1761   1.478       .  S
C863        H865   1.081       .  S
Cu866       N869   2.062       .  S
Cu867       N877   2.090       .  S
Cu868       N870   2.076       .  S
Cu868       N876   2.078       .  S
N869        N870   1.319       .  A
N869        C873   1.342       .  A
N870        C871   1.347       .  A
C871        C872   1.391       .  A
C871        H874   1.080       .  S
C872        C873   1.387       .  A
C872       C1801   1.488       .  S
C873        H875   1.080       .  S
N876        N877   1.324       .  A
N876        C880   1.344       .  A
N877        C878   1.348       .  A
C878        C879   1.388       .  A
C878        H881   1.081       .  S
C879        C880   1.385       .  A
C879       C1921   1.486       .  S
C880        H882   1.081   1_556  S
N883        N884   1.322       .  A
N883        C887   1.353       .  A
N883       Cu891   2.108       .  S
N884        C885   1.341       .  A
N884       Cu890   2.052       .  S
C885        C886   1.378       .  A
C885        H888   1.082       .  S
C886        C887   1.392       .  A
C886       C1848   1.481       .  S
C887        H889   1.081       .  S
Cu890       N893   2.052       .  S
Cu891       N901   2.110       .  S
Cu892       N894   2.087       .  S
Cu892       N900   2.090       .  S
N893        N894   1.319       .  A
N893        C897   1.340       .  A
N894        C895   1.349       .  A
C895        C896   1.393       .  A
C895        H898   1.081       .  S
C896        C897   1.383       .  A
C896       C1741   1.486       .  S
C897        H899   1.081       .  S
N900        N901   1.325       .  A
N900        C904   1.346       .  A
N901        C902   1.352       .  A
C902        C903   1.392       .  A
C902        H905   1.082       .  S
C903        C904   1.387       .  A
C903       C1721   1.496       .  S
C904        H906   1.082       .  S
N907        N908   1.322       .  A
N907        C911   1.354       .  A
N907       Cu915   2.112       .  S
N908        C909   1.340       .  A
N908       Cu914   2.055       .  S
C909        C910   1.379       .  A
C909        H912   1.082       .  S
C910        C911   1.393       .  A
C910       C1701   1.484       .  S
C911        H913   1.082       .  S
Cu914       N917   2.055       .  S
Cu915       N925   2.114       .  S
Cu916       N918   2.085       .  S
Cu916       N924   2.088       .  S
N917        N918   1.319       .  A
N917        C921   1.340       .  A
N918        C919   1.350       .  A
C919        C920   1.391       .  A
C919        H922   1.081       .  S
C920        C921   1.383       .  A
C920       C1748   1.485       .  S
C921        H923   1.081       .  S
N924        N925   1.326       .  A
N924        C928   1.346       .  A
N925        C926   1.352       .  A
C926        C927   1.392       .  A
C926        H929   1.081       .  S
C927        C928   1.385       .  A
C927       C1688   1.495       .  S
C928        H930   1.081       .  S
N931        N932   1.321       .  A
N931        C935   1.350       .  A
N931       Cu939   2.098       .  S
N932        C933   1.342       .  A
N932       Cu938   2.063       .  S
C933        C934   1.383       .  A
C933        H936   1.082       .  S
C934        C935   1.392       .  A
C934       C1768   1.486       .  S
C935        H937   1.081       .  S
Cu938       N941   2.063       .  S
Cu939       N949   2.100       .  S
Cu940       N942   2.088       .  S
Cu940       N948   2.090       .  S
N941        N942   1.321       .  A
N941        C945   1.342       .  A
N942        C943   1.349       .  A
C943        C944   1.389       .  A
C943        H946   1.081       .  S
C944        C945   1.382       .  A
C944       C1661   1.481       .  S
C945        H947   1.082       .  S
N948        N949   1.323       .  A
N948        C952   1.347       .  A
N949        C950   1.348       .  A
C950        C951   1.394       .  A
C950        H953   1.081       .  S
C951        C952   1.392       .  A
C951       C1641   1.504       .  S
C952        H954   1.080       .  S
N955        N956   1.319       .  A
N955        C959   1.354       .  A
N955       Cu963   2.104       .  S
N956        C957   1.338       .  A
N956       Cu962   2.049       .  S
C957        C958   1.381       .  A
C957        H960   1.081       .  S
C958        C959   1.396       .  A
C958       C1708   1.490       .  S
C959        H961   1.081       .  S
Cu962       N965   2.048       .  S
Cu963       N973   2.107       .  S
Cu964       N966   2.081       .  S
Cu964       N972   2.085       .  S
N965        N966   1.319       .  A
N965        C969   1.338       .  A
N966        C967   1.351       .  A
C967        C968   1.391       .  A
C967        H970   1.081       .  S
C968        C969   1.379       .  A
C968       C1668   1.479       .  S
C969        H971   1.082       .  S
N972        N973   1.326       .  A
N972        C976   1.344       .  A
N973        C974   1.349       .  A
C974        C975   1.392       .  A
C974        H977   1.080       .  S
C975        C976   1.387       .  A
C975       C1621   1.495       .  S
C976        H978   1.080       .  S
C979        C980   1.407       .  A
C979        C984   1.410       .  A
C979       C3168   1.493       .  S
C980        C981   1.407       .  A
C980        H985   1.084       .  S
C981        C982   1.408       .  A
C981       C1608   1.493       .  S
C982        C983   1.409       .  A
C982        H986   1.084       .  S
C983        C984   1.410       .  A
C983       C1728   1.494       .  S
C984        H987   1.084       .  S
C988        C989   1.408       .  A
C988        C993   1.411       .  A
C988       C1788   1.495       .  S
C989        C990   1.404       .  A
C989        H994   1.084       .  S
C990        C991   1.406       .  A
C990       C3121   1.488       .  S
C991        C992   1.408       .  A
C991        H995   1.084       .  S
C992        C993   1.410       .  A
C992       C2808   1.495       .  S
C993        H996   1.083       .  S
N997        N998   1.320       .  A
N997       C1001   1.348       .  A
N997      Cu1005   2.080       .  S
N998        C999   1.340       .  A
N998      Cu1004   2.056       .  S
C999       C1000   1.381       .  A
C999       H1002   1.082       .  S
C1000      C1001   1.389       .  A
C1000      C1568   1.479       .  S
C1001      H1003   1.081       .  S
Cu1004     N1007   2.055       .  S
Cu1005     N1015   2.082       .  S
Cu1006     N1008   2.087       .  S
Cu1006     N1014   2.089       .  S
N1007      N1008   1.320       .  A
N1007      C1011   1.339       .  A
N1008      C1009   1.352       .  A
C1009      C1010   1.391       .  A
C1009      H1012   1.081       .  S
C1010      C1011   1.381       .  A
C1010      C1581   1.482       .  S
C1011      H1013   1.081       .  S
N1014      N1015   1.325       .  A
N1014      C1018   1.344       .  A
N1015      C1016   1.347       .  A
C1016      C1017   1.385       .  A
C1016      H1019   1.082       .  S
C1017      C1018   1.385       .  A
C1017      C1541   1.484       .  S
C1018      H1020   1.082       .  S
N1021      N1022   1.317       .  A
N1021      C1025   1.351       .  A
N1021     Cu1029   2.095       .  S
N1022      C1023   1.337       .  A
N1022     Cu1028   2.035       .  S
C1023      C1024   1.381       .  A
C1023      H1026   1.081       .  S
C1024      C1025   1.396       .  A
C1024      C1528   1.487       .  S
C1025      H1027   1.081       .  S
Cu1028     N1031   2.035       .  S
Cu1029     N1039   2.100       .  S
Cu1030     N1032   2.097       .  S
Cu1030     N1038   2.101       .  S
N1031      N1032   1.317       .  A
N1031      C1035   1.334       .  A
N1032      C1033   1.354       .  A
C1033      C1034   1.399       .  A
C1033      H1036   1.081       .  S
C1034      C1035   1.380       .  A
C1034      C1588   1.490       .  S
C1035      H1037   1.080       .  S
N1038      N1039   1.328       .  A
N1038      C1042   1.345       .  A
N1039      C1040   1.349       .  A
C1040      C1041   1.387       .  A
C1040      H1043   1.082       .  S
C1041      C1042   1.386       .  A
C1041      C1501   1.491       .  S
C1042      H1044   1.081       .  S
N1045      N1046   1.321       .  A
N1045      C1049   1.352       .  A
N1045     Cu1053   2.098       .  S
N1046      C1047   1.340       .  A
N1046     Cu1052   2.056       .  S
C1047      C1048   1.380       .  A
C1047      H1050   1.082       .  S
C1048      C1049   1.392       .  A
C1048      C1561   1.483       .  S
C1049      H1051   1.082       .  S
Cu1052     N1055   2.057       .  S
Cu1053     N1063   2.101       .  S
Cu1054     N1056   2.083       .  S
Cu1054     N1062   2.085       .  S
N1055      N1056   1.319       .  A
N1055      C1059   1.340       .  A
N1056      C1057   1.349       .  A
C1057      C1058   1.391       .  A
C1057      H1060   1.081       .  S
C1058      C1059   1.383       .  A
C1058      C1481   1.484       .  S
C1059      H1061   1.082       .  S
N1062      N1063   1.326       .  A
N1062      C1066   1.346       .  A
N1063      C1064   1.349       .  A
C1064      C1065   1.388       .  A
C1064      H1067   1.082       .  S
C1065      C1066   1.383       .  A
C1065      C1461   1.485       .  S
C1066      H1068   1.082       .  S
N1069      N1070   1.321       .  A
N1069      C1073   1.355       .  A
N1069     Cu1077   2.114       .  S
N1070      C1071   1.339       .  A
N1070     Cu1076   2.047       .  S
C1071      C1072   1.379       .  A
C1071      H1074   1.082       .  S
C1072      C1073   1.396       .  A
C1072      C1441   1.487       .  S
C1073      H1075   1.081       .  S
Cu1076     N1079   2.048       .  S
Cu1077     N1087   2.117       .  S
Cu1078     N1080   2.084       .  S
Cu1078     N1086   2.087       .  S
N1079      N1080   1.318       .  A
N1079      C1083   1.338       .  A
N1080      C1081   1.350       .  A
C1081      C1082   1.395       .  A
C1081      H1084   1.081       .  S
C1082      C1083   1.384       .  A
C1082      C1488   1.489       .  S
C1083      H1085   1.081       .  S
N1086      N1087   1.327       .  A
N1086      C1090   1.346       .  A
N1087      C1088   1.352       .  A
C1088      C1089   1.391       .  A
C1088      H1091   1.082       .  S
C1089      C1090   1.383       .  A
C1089      C1601   1.491       .  S
C1090      H1092   1.082       .  S
N1093      N1094   1.320       .  A
N1093      C1097   1.350       .  A
N1093     Cu1101   2.088       .  S
N1094      C1095   1.341       .  A
N1094     Cu1100   2.060       .  S
C1095      C1096   1.384       .  A
C1095      H1098   1.081       .  S
C1096      C1097   1.391       .  A
C1096      C1521   1.487       .  S
C1097      H1099   1.081       .  S
Cu1100     N1103   2.061       .  S
Cu1101     N1111   2.090       .  S
Cu1102     N1104   2.089       .  S
Cu1102     N1110   2.090       .  S
N1103      N1104   1.321       .  A
N1103      C1107   1.341       .  A
N1104      C1105   1.351   1_565  A
C1105      C1106   1.390       .  A
C1105      H1108   1.081       .  S
C1106      C1107   1.381   1_545  A
C1106      C1421   1.482       .  S
C1107      H1109   1.081       .  S
N1110      N1111   1.325       .  A
N1110      C1114   1.346   1_565  A
N1111      C1112   1.348       .  A
C1112      C1113   1.387       .  A
C1112      H1115   1.081       .  S
C1113      C1114   1.387   1_565  A
C1113      C1401   1.489   1_565  S
C1114      H1116   1.081       .  S
N1117      N1118   1.320       .  A
N1117      C1121   1.353       .  A
N1117     Cu1125   2.111       .  S
N1118      C1119   1.341       .  A
N1118     Cu1124   2.065       .  S
C1119      C1120   1.389       .  A
C1119      H1122   1.079       .  S
C1120      C1121   1.400       .  A
C1120      C1381   1.505       .  S
C1121      H1123   1.080       .  S
Cu1124     N1127   2.065       .  S
Cu1125     N1135   2.113       .  S
Cu1126     N1128   2.092       .  S
Cu1126     N1134   2.093       .  S
N1127      N1128   1.322       .  A
N1127      C1131   1.342       .  A
N1128      C1129   1.351       .  A
C1129      C1130   1.389       .  A
C1129      H1132   1.082       .  S
C1130      C1131   1.381       .  A
C1130      C1428   1.480       .  S
C1131      H1133   1.082       .  S
N1134      N1135   1.324       .  A
N1134      C1138   1.347       .  A
N1135      C1136   1.351       .  A
C1136      C1137   1.397       .  A
C1136      H1139   1.080       .  S
C1137      C1138   1.392       .  A
C1137      C1368   1.508       .  S
C1138      H1140   1.080       .  S
N1141      N1142   1.322       .  A
N1141      C1145   1.353       .  A
N1141     Cu1149   2.109       .  S
N1142      C1143   1.341       .  A
N1142     Cu1148   2.056       .  S
C1143      C1144   1.381       .  A
C1143      H1146   1.082       .  S
C1144      C1145   1.394       .  A
C1144      C1388   1.489       .  S
C1145      H1147   1.081       .  S
Cu1148     N1151   2.056       .  S
Cu1149     N1159   2.111       .  S
Cu1150     N1152   2.078       .  S
Cu1150     N1158   2.080       .  S
N1151      N1152   1.319       .  A
N1151      C1155   1.340       .  A
N1152      C1153   1.348       .  A
C1153      C1154   1.389       .  A
C1153      H1156   1.082       .  S
C1154      C1155   1.383       .  A
C1154      C1341   1.481       .  S
C1155      H1157   1.082       .  S
N1158      N1159   1.325       .  A
N1158      C1162   1.346       .  A
N1159      C1160   1.350       .  A
C1160      C1161   1.392       .  A
C1160      H1163   1.081       .  S
C1161      C1162   1.385       .  A
C1161      C1321   1.492       .  S
C1162      H1164   1.081       .  S
N1165      N1166   1.322       .  A
N1165      C1169   1.353       .  A
N1165     Cu1173   2.106       .  S
N1166      C1167   1.340       .  A
N1166     Cu1172   2.060       .  S
C1167      C1168   1.382       .  A
C1167      H1170   1.081       .  S
C1168      C1169   1.395       .  A
C1168      C1448   1.491       .  S
C1169      H1171   1.081       .  S
Cu1172     N1175   2.058       .  S
Cu1173     N1183   2.107       .  S
Cu1174     N1176   2.080       .  S
Cu1174     N1182   2.082       .  S
N1175      N1176   1.320       .  A
N1175      C1179   1.343       .  A
N1176      C1177   1.347       .  A
C1177      C1178   1.387       .  A
C1177      H1180   1.081       .  S
C1178      C1179   1.381       .  A
C1178      C1348   1.476       .  S
C1179      H1181   1.082       .  S
N1182      N1183   1.325       .  A
N1182      C1186   1.345       .  A
N1183      C1184   1.351       .  A
C1184      C1185   1.392       .  A
C1184      H1187   1.081       .  S
C1185      C1186   1.385       .  A
C1185      C1308   1.493       .  S
C1186      H1188   1.081       .  S
C1189      C1190   1.402       .  A
C1189      C1194   1.400       .  A
C1189      C2421   1.476       .  S
C1190      C1191   1.407       .  A
C1190      H1195   1.084       .  S
C1191      C1192   1.410       .  A
C1191      C2081   1.493       .  S
C1192      C1193   1.408       .  A
C1192      H1196   1.083       .  S
C1193      C1194   1.404       .  A
C1193      C1408   1.485       .  S
C1194      H1197   1.084   1_655  S
C1198      C1199   1.407       .  A
C1198      C1203   1.409       .  A
C1198      C2968   1.492       .  S
C1199      C1200   1.405       .  A
C1199      H1204   1.084       .  S
C1200      C1201   1.403       .  A
C1200      C2408   1.485       .  S
C1201      C1202   1.406       .  A
C1201      H1205   1.084       .  S
C1202      C1203   1.410       .  A
C1202      C1468   1.493       .  S
C1203      H1206   1.083       .  S
C1207      C1208   1.410       .  A
C1207      C1212   1.407       .  A
C1207      C1681   1.491       .  S
C1208      C1209   1.411   1_565  A
C1208      H1213   1.083   1_655  S
C1209      C1210   1.409       .  A
C1209      C1361   1.498       .  S
C1210      C1211   1.408   1_545  A
C1210      H1214   1.084       .  S
C1211      C1212   1.406       .  A
C1211      C1941   1.494   1_565  S
C1212      H1215   1.084   1_556  S
C1216      C1217   1.411       .  A
C1216      C1221   1.407       .  A
C1216      C2208   1.497       .  S
C1217      C1218   1.409       .  A
C1217      H1222   1.083       .  S
C1218      C1219   1.406       .  A
C1218      C1868   1.491       .  S
C1219      C1220   1.403       .  A
C1219      H1223   1.083       .  S
C1220      C1221   1.406       .  A
C1220      C1548   1.490       .  S
C1221      H1224   1.083       .  S
C1225      C1226   1.408       .  A
C1225      C1230   1.403       .  A
C1225      C2928   1.487       .  S
C1226      C1227   1.414       .  A
C1226      H1231   1.083       .  S
C1227      C1228   1.410       .  A
C1227      C1648   1.502       .  S
C1228      C1229   1.406       .  A
C1228      H1232   1.083       .  S
C1229      C1230   1.403       .  A
C1229      C1508   1.485       .  S
C1230      H1233   1.084       .  S
C1234      C1235   1.407       .  A
C1234      C1239   1.405       .  A
C1234      C2528   1.491       .  S
C1235      C1236   1.409       .  A
C1235      H1240   1.083       .  S
C1236      C1237   1.409       .  A
C1236      C1301   1.495       .  S
C1237      C1238   1.407       .  A
C1237      H1241   1.083       .  S
C1238      C1239   1.404       .  A
C1238      C2168   1.488       .  S
C1239      H1242   1.084       .  S
C1243      C1244   1.405       .  A
C1243      C1248   1.406       .  A
C1243      C2768   1.489       .  S
C1244      C1245   1.405       .  A
C1244      H1249   1.084       .  S
C1245      C1246   1.408       .  A
C1245      C1821   1.489       .  S
C1246      C1247   1.409       .  A
C1246      H1250   1.083       .  S
C1247      C1248   1.407       .  A
C1247      C2008   1.494       .  S
C1248      H1251   1.083       .  S
C1252      C1253   1.404       .  A
C1252      C1257   1.409       .  A
C1252      C2488   1.489       .  S
C1253      C1254   1.405       .  A
C1253      H1258   1.084       .  S
C1254      C1255   1.404       .  A
C1254      C2028   1.487       .  S
C1255      C1256   1.406       .  A
C1255      H1259   1.084       .  S
C1256      C1257   1.409       .  A
C1256      C2648   1.493       .  S
C1257      H1260   1.083       .  S
C1261      C1262   1.408       .  A
C1261      C1266   1.407       .  A
C1261      C2908   1.491       .  S
C1262      C1263   1.409       .  A
C1262      H1267   1.083       .  S
C1263      C1264   1.408       .  A
C1263      C1328   1.495       .  S
C1264      C1265   1.407       .  A
C1264      H1268   1.084       .  S
C1265      C1266   1.405       .  A
C1265      C2288   1.486       .  S
C1266      H1269   1.084       .  S
C1270      C1271   1.411       .  A
C1270      C1275   1.406       .  A
C1270      C2728   1.492       .  S
C1271      C1272   1.410       .  A
C1271      H1276   1.083       .  S
C1272      C1273   1.406       .  A
C1272      C3068   1.492       .  S
C1273      C1274   1.402       .  A
C1273      H1277   1.084       .  S
C1274      C1275   1.402       .  A
C1274      C1628   1.483       .  S
C1275      H1278   1.084       .  S
C1279      C1280   1.405       .  A
C1279      C1284   1.406       .  A
C1279      C2848   1.487       .  S
C1280      C1281   1.413       .  A
C1280      H1285   1.083       .  S
C1281      C1282   1.414       .  A
C1281      C2328   1.506       .  S
C1282      C1283   1.410       .  A
C1282      H1286   1.082       .  S
C1283      C1284   1.405       .  A
C1283      C2988   1.494       .  S
C1284      H1287   1.084       .  S
C1288      C1289   1.406       .  A
C1288      C1293   1.408       .  A
C1288      C2668   1.492       .  S
C1289      C1290   1.402       .  A
C1289      H1294   1.084       .  S
C1290      C1291   1.406       .  A
C1290      C2268   1.485       .  S
C1291      C1292   1.410       .  A
C1291      H1295   1.083       .  S
C1292      C1293   1.409       .  A
C1292      C3041   1.494       .  S
C1293      H1296   1.083       .  S
C1297      C1298   1.404       .  A
C1297      C1302   1.402       .  A
C1297      F1315   1.358       .  S
C1298      C1299   1.404       .  A
C1298      C1303   1.484       .  S
C1299      C1300   1.403       .  A
C1299      F1304   1.358       .  S
C1300      C1301   1.411       .  A
C1300      F1316   1.358       .  S
C1301      C1302   1.411       .  A
C1302      F1305   1.358       .  S
C1303      C1306   1.404       .  A
C1303      C1310   1.403       .  A
C1306      C1307   1.404       .  A
C1306      F1311   1.358       .  S
C1307      C1308   1.410       .  A
C1307      F1313   1.357       .  S
C1308      C1309   1.412       .  A
C1309      C1310   1.402       .  A
C1309      F1312   1.357       .  S
C1310      F1314   1.358       .  S
C1317      C1318   1.403       .  A
C1317      C1322   1.403       .  A
C1317      F1335   1.358       .  S
C1318      C1319   1.404       .  A
C1318      C1323   1.485       .  S
C1319      C1320   1.404       .  A
C1319      F1324   1.357       .  S
C1320      C1321   1.410       .  A
C1320      F1336   1.357       .  S
C1321      C1322   1.411       .  A
C1322      F1325   1.357       .  S
C1323      C1326   1.404       .  A
C1323      C1330   1.404       .  A
C1326      C1327   1.404       .  A
C1326      F1331   1.358       .  S
C1327      C1328   1.411       .  A
C1327      F1333   1.358       .  S
C1328      C1329   1.411       .  A
C1329      C1330   1.403       .  A
C1329      F1332   1.358       .  S
C1330      F1334   1.357       .  S
C1337      C1338   1.409       .  A
C1337      C1342   1.401       .  A
C1337      F1355   1.358       .  S
C1338      C1339   1.405       .  A
C1338      C1343   1.486       .  S
C1339      C1340   1.397       .  A
C1339      F1344   1.358       .  S
C1340      C1341   1.408       .  A
C1340      F1356   1.358       .  S
C1341      C1342   1.407       .  A
C1342      F1345   1.357       .  S
C1343      C1346   1.407   1_455  A
C1343      C1350   1.409   1_455  A
C1346      C1347   1.400       .  A
C1346      F1351   1.358   1_655  S
C1347      C1348   1.406       .  A
C1347      F1353   1.358       .  S
C1348      C1349   1.404       .  A
C1349      C1350   1.399       .  A
C1349      F1352   1.358       .  S
C1350      F1354   1.358       .  S
C1357      C1358   1.407       .  A
C1357      C1362   1.407       .  A
C1357      F1375   1.357       .  S
C1358      C1359   1.405   1_455  A
C1358      C1363   1.492       .  S
C1359      C1360   1.403       .  A
C1359      F1364   1.358       .  S
C1360      C1361   1.411       .  A
C1360      F1376   1.358       .  S
C1361      C1362   1.410   1_655  A
C1362      F1365   1.358       .  S
C1363      C1366   1.403       .  A
C1363      C1370   1.404       .  A
C1366      C1367   1.405       .  A
C1366      F1371   1.358       .  S
C1367      C1368   1.417       .  A
C1367      F1373   1.356       .  S
C1368      C1369   1.415       .  A
C1369      C1370   1.407       .  A
C1369      F1372   1.356       .  S
C1370      F1374   1.358       .  S
C1377      C1378   1.404       .  A
C1377      C1382   1.397       .  A
C1377      F1395   1.359       .  S
C1378      C1379   1.408       .  A
C1378      C1383   1.495       .  S
C1379      C1380   1.409       .  A
C1379      F1384   1.358       .  S
C1380      C1381   1.414       .  A
C1380      F1396   1.356       .  S
C1381      C1382   1.415       .  A
C1382      F1385   1.355       .  S
C1383      C1386   1.407       .  A
C1383      C1390   1.410       .  A
C1386      C1387   1.397       .  A
C1386      F1391   1.358       .  S
C1387      C1388   1.408       .  A
C1387      F1393   1.358       .  S
C1388      C1389   1.408       .  A
C1389      C1390   1.408       .  A
C1389      F1392   1.357       .  S
C1390      F1394   1.357       .  S
C1397      C1398   1.408       .  A
C1397      C1402   1.400       .  A
C1397      F1415   1.358   1_455  S
C1398      C1399   1.408       .  A
C1398      C1403   1.493       .  S
C1399      C1400   1.403       .  A
C1399      F1404   1.358       .  S
C1400      C1401   1.410       .  A
C1400      F1416   1.357   1_545  S
C1401      C1402   1.408       .  A
C1402      F1405   1.357       .  S
C1403      C1406   1.409       .  A
C1403      C1410   1.410       .  A
C1406      C1407   1.400   1_455  A
C1406      F1411   1.358       .  S
C1407      C1408   1.406       .  A
C1407      F1413   1.358       .  S
C1408      C1409   1.406   1_655  A
C1409      C1410   1.403       .  A
C1409      F1412   1.358       .  S
C1410      F1414   1.357   1_545  S
C1417      C1418   1.403   1_565  A
C1417      C1422   1.397       .  A
C1417      F1435   1.358       .  S
C1418      C1419   1.408       .  A
C1418      C1423   1.484       .  S
C1419      C1420   1.404       .  A
C1419      F1424   1.358       .  S
C1420      C1421   1.406       .  A
C1420      F1436   1.358       .  S
C1421      C1422   1.408   1_545  A
C1422      F1425   1.358       .  S
C1423      C1426   1.406       .  A
C1423      C1430   1.406       .  A
C1426      C1427   1.398       .  A
C1426      F1431   1.358       .  S
C1427      C1428   1.406       .  A
C1427      F1433   1.358       .  S
C1428      C1429   1.407       .  A
C1429      C1430   1.404       .  A
C1429      F1432   1.357       .  S
C1430      F1434   1.358       .  S
C1437      C1438   1.407       .  A
C1437      C1442   1.405       .  A
C1437      F1455   1.358       .  S
C1438      C1439   1.402       .  A
C1438      C1443   1.485       .  S
C1439      C1440   1.401       .  A
C1439      F1444   1.358       .  S
C1440      C1441   1.410       .  A
C1440      F1456   1.358       .  S
C1441      C1442   1.407       .  A
C1442      F1445   1.357       .  S
C1443      C1446   1.406       .  A
C1443      C1450   1.402       .  A
C1446      C1447   1.407       .  A
C1446      F1451   1.357       .  S
C1447      C1448   1.410       .  A
C1447      F1453   1.357       .  S
C1448      C1449   1.410       .  A
C1449      C1450   1.398       .  A
C1449      F1452   1.358       .  S
C1450      F1454   1.358       .  S
C1457      C1458   1.406   1_655  A
C1457      C1462   1.402       .  A
C1457      F1475   1.358       .  S
C1458      C1459   1.405       .  A
C1458      C1463   1.486       .  S
C1459      C1460   1.402       .  A
C1459      F1464   1.358       .  S
C1460      C1461   1.407   1_455  A
C1460      F1476   1.357       .  S
C1461      C1462   1.409       .  A
C1462      F1465   1.358       .  S
C1463      C1466   1.405       .  A
C1463      C1470   1.405       .  A
C1466      C1467   1.402       .  A
C1466      F1471   1.358   1_455  S
C1467      C1468   1.411       .  A
C1467      F1473   1.358       .  S
C1468      C1469   1.410       .  A
C1469      C1470   1.402       .  A
C1469      F1472   1.358       .  S
C1470      F1474   1.358       .  S
C1477      C1478   1.406       .  A
C1477      C1482   1.404       .  A
C1477      F1495   1.358       .  S
C1478      C1479   1.403       .  A
C1478      C1483   1.482       .  S
C1479      C1480   1.395       .  A
C1479      F1484   1.358       .  S
C1480      C1481   1.409       .  A
C1480      F1496   1.357       .  S
C1481      C1482   1.409       .  A
C1482      F1485   1.357       .  S
C1483      C1486   1.406       .  A
C1483      C1490   1.402       .  A
C1486      C1487   1.403       .  A
C1486      F1491   1.358   1_655  S
C1487      C1488   1.411       .  A
C1487      F1493   1.357       .  S
C1488      C1489   1.412       .  A
C1489      C1490   1.395       .  A
C1489      F1492   1.357       .  S
C1490      F1494   1.358       .  S
C1497      C1498   1.408       .  A
C1497      C1502   1.404       .  A
C1497      F1515   1.358       .  S
C1498      C1499   1.406       .  A
C1498      C1503   1.491       .  S
C1499      C1500   1.399       .  A
C1499      F1504   1.358       .  S
C1500      C1501   1.409       .  A
C1500      F1516   1.357       .  S
C1501      C1502   1.411       .  A
C1502      F1505   1.357       .  S
C1503      C1506   1.408       .  A
C1503      C1510   1.409       .  A
C1506      C1507   1.402       .  A
C1506      F1511   1.358       .  S
C1507      C1508   1.406       .  A
C1507      F1513   1.358       .  S
C1508      C1509   1.406       .  A
C1509      C1510   1.401       .  A
C1509      F1512   1.358       .  S
C1510      F1514   1.358       .  S
C1517      C1518   1.403       .  A
C1517      C1522   1.395       .  A
C1517      F1535   1.358       .  S
C1518      C1519   1.406       .  A
C1518      C1523   1.483       .  S
C1519      C1520   1.405       .  A
C1519      F1524   1.358       .  S
C1520      C1521   1.409       .  A
C1520      F1536   1.357       .  S
C1521      C1522   1.410       .  A
C1522      F1525   1.357       .  S
C1523      C1526   1.403       .  A
C1523      C1530   1.406       .  A
C1526      C1527   1.395       .  A
C1526      F1531   1.359       .  S
C1527      C1528   1.412       .  A
C1527      F1533   1.357       .  S
C1528      C1529   1.408       .  A
C1529      C1530   1.404       .  A
C1529      F1532   1.357       .  S
C1530      F1534   1.357       .  S
C1537      C1538   1.404       .  A
C1537      C1542   1.398       .  A
C1537      F1555   1.358       .  S
C1538      C1539   1.406       .  A
C1538      C1543   1.483       .  S
C1539      C1540   1.402       .  A
C1539      F1544   1.358       .  S
C1540      C1541   1.409       .  A
C1540      F1556   1.358       .  S
C1541      C1542   1.408       .  A
C1542      F1545   1.357       .  S
C1543      C1546   1.405       .  A
C1543      C1550   1.405       .  A
C1546      C1547   1.399       .  A
C1546      F1551   1.358       .  S
C1547      C1548   1.408       .  A
C1547      F1553   1.358       .  S
C1548      C1549   1.410       .  A
C1549      C1550   1.402       .  A
C1549      F1552   1.358       .  S
C1550      F1554   1.358       .  S
C1557      C1558   1.404       .  A
C1557      C1562   1.405       .  A
C1557      F1575   1.357       .  S
C1558      C1559   1.401       .  A
C1558      C1563   1.476       .  S
C1559      C1560   1.396       .  A
C1559      F1564   1.358       .  S
C1560      C1561   1.409       .  A
C1560      F1576   1.358       .  S
C1561      C1562   1.409       .  A
C1562      F1565   1.357       .  S
C1563      C1566   1.404       .  A
C1563      C1570   1.402       .  A
C1566      C1567   1.400       .  A
C1566      F1571   1.358       .  S
C1567      C1568   1.407       .  A
C1567      F1573   1.357       .  S
C1568      C1569   1.409       .  A
C1569      C1570   1.399       .  A
C1569      F1572   1.358       .  S
C1570      F1574   1.358       .  S
C1577      C1578   1.407   1_655  A
C1577      C1582   1.405       .  A
C1577      F1595   1.358       .  S
C1578      C1579   1.401       .  A
C1578      C1583   1.479       .  S
C1579      C1580   1.395   1_455  A
C1579      F1584   1.358       .  S
C1580      C1581   1.409       .  A
C1580      F1596   1.358       .  S
C1581      C1582   1.408       .  A
C1582      F1585   1.358       .  S
C1583      C1586   1.406       .  A
C1583      C1590   1.399       .  A
C1586      C1587   1.405       .  A
C1586      F1591   1.357       .  S
C1587      C1588   1.409       .  A
C1587      F1593   1.357       .  S
C1588      C1589   1.414       .  A
C1589      C1590   1.395       .  A
C1589      F1592   1.357       .  S
C1590      F1594   1.358       .  S
C1597      C1598   1.406       .  A
C1597      C1602   1.405       .  A
C1597      F1615   1.357       .  S
C1598      C1599   1.404       .  A
C1598      C1603   1.486       .  S
C1599      C1600   1.402   1_455  A
C1599      F1604   1.358   1_455  S
C1600      C1601   1.411       .  A
C1600      F1616   1.357       .  S
C1601      C1602   1.409   1_655  A
C1602      F1605   1.357       .  S
C1603      C1606   1.404       .  A
C1603      C1610   1.405       .  A
C1606      C1607   1.403       .  A
C1606      F1611   1.358       .  S
C1607      C1608   1.410       .  A
C1607      F1613   1.358       .  S
C1608      C1609   1.409       .  A
C1609      C1610   1.404       .  A
C1609      F1612   1.358       .  S
C1610      F1614   1.358   1_455  S
C1617      C1618   1.400       .  A
C1617      C1622   1.399       .  A
C1617      F1635   1.358       .  S
C1618      C1619   1.402       .  A
C1618      C1623   1.478       .  S
C1619      C1620   1.402       .  A
C1619      F1624   1.358       .  S
C1620      C1621   1.413       .  A
C1620      F1636   1.356       .  S
C1621      C1622   1.414       .  A
C1622      F1625   1.356       .  S
C1623      C1626   1.403       .  A
C1623      C1630   1.404       .  A
C1626      C1627   1.400       .  A
C1626      F1631   1.358       .  S
C1627      C1628   1.407       .  A
C1627      F1633   1.358       .  S
C1628      C1629   1.407       .  A
C1629      C1630   1.400       .  A
C1629      F1632   1.358       .  S
C1630      F1634   1.358       .  S
C1637      C1638   1.407       .  A
C1637      C1642   1.404       .  A
C1637      F1655   1.358       .  S
C1638      C1639   1.407       .  A
C1638      C1643   1.497       .  S
C1639      C1640   1.404       .  A
C1639      F1644   1.358       .  S
C1640      C1641   1.415       .  A
C1640      F1656   1.356       .  S
C1641      C1642   1.413       .  A
C1642      F1645   1.356       .  S
C1643      C1646   1.408       .  A
C1643      C1650   1.408       .  A
C1646      C1647   1.403       .  A
C1646      F1651   1.358       .  S
C1647      C1648   1.411       .  A
C1647      F1653   1.357       .  S
C1648      C1649   1.413       .  A
C1649      C1650   1.404       .  A
C1649      F1652   1.358       .  S
C1650      F1654   1.358       .  S
C1657      C1658   1.408   1_556  A
C1657      C1662   1.401       .  A
C1657      F1675   1.358       .  S
C1658      C1659   1.404       .  A
C1658      C1663   1.483       .  S
C1659      C1660   1.398   1_554  A
C1659      F1664   1.358       .  S
C1660      C1661   1.408       .  A
C1660      F1676   1.358       .  S
C1661      C1662   1.406       .  A
C1662      F1665   1.358       .  S
C1663      C1666   1.403       .  A
C1663      C1670   1.409       .  A
C1666      C1667   1.396       .  A
C1666      F1671   1.358       .  S
C1667      C1668   1.407       .  A
C1667      F1673   1.358       .  S
C1668      C1669   1.406       .  A
C1669      C1670   1.403       .  A
C1669      F1672   1.358       .  S
C1670      F1674   1.358       .  S
C1677      C1678   1.409   1_656  A
C1677      C1682   1.404       .  A
C1677      F1695   1.358       .  S
C1678      C1679   1.410       .  A
C1678      C1683   1.498       .  S
C1679      C1680   1.405   1_554  A
C1679      F1684   1.357       .  S
C1680      C1681   1.406   1_455  A
C1680      F1696   1.358       .  S
C1681      C1682   1.408       .  A
C1682      F1685   1.358       .  S
C1683      C1686   1.408   1_554  A
C1683      C1690   1.409       .  A
C1686      C1687   1.404   1_556  A
C1686      F1691   1.358       .  S
C1687      C1688   1.410       .  A
C1687      F1693   1.357   1_554  S
C1688      C1689   1.409       .  A
C1689      C1690   1.405       .  A
C1689      F1692   1.357       .  S
C1690      F1694   1.358       .  S
C1697      C1698   1.408       .  A
C1697      C1702   1.407       .  A
C1697      F1715   1.357       .  S
C1698      C1699   1.406       .  A
C1698      C1703   1.488       .  S
C1699      C1700   1.398       .  A
C1699      F1704   1.358       .  S
C1700      C1701   1.407       .  A
C1700      F1716   1.358       .  S
C1701      C1702   1.407       .  A
C1702      F1705   1.357       .  S
C1703      C1706   1.408       .  A
C1703      C1710   1.403       .  A
C1706      C1707   1.407       .  A
C1706      F1711   1.357       .  S
C1707      C1708   1.409       .  A
C1707      F1713   1.357       .  S
C1708      C1709   1.411       .  A
C1709      C1710   1.397       .  A
C1709      F1712   1.358       .  S
C1710      F1714   1.358       .  S
C1717      C1718   1.409   1_655  A
C1717      C1722   1.407       .  A
C1717      F1735   1.358       .  S
C1718      C1719   1.407   1_554  A
C1718      C1723   1.497   1_554  S
C1719      C1720   1.402   1_455  A
C1719      F1724   1.358       .  S
C1720      C1721   1.410   1_556  A
C1720      F1736   1.357       .  S
C1721      C1722   1.410       .  A
C1722      F1725   1.357       .  S
C1723      C1726   1.408       .  A
C1723      C1730   1.410       .  A
C1726      C1727   1.404       .  A
C1726      F1731   1.358   1_455  S
C1727      C1728   1.409       .  A
C1727      F1733   1.358       .  S
C1728      C1729   1.408       .  A
C1729      C1730   1.405       .  A
C1729      F1732   1.358       .  S
C1730      F1734   1.358       .  S
C1737      C1738   1.402       .  A
C1737      C1742   1.399       .  A
C1737      F1755   1.358       .  S
C1738      C1739   1.406   1_655  A
C1738      C1743   1.481   1_655  S
C1739      C1740   1.400       .  A
C1739      F1744   1.358       .  S
C1740      C1741   1.408   1_455  A
C1740      F1756   1.357       .  S
C1741      C1742   1.411       .  A
C1742      F1745   1.357       .  S
C1743      C1746   1.403       .  A
C1743      C1750   1.406       .  A
C1746      C1747   1.395       .  A
C1746      F1751   1.358       .  S
C1747      C1748   1.409       .  A
C1747      F1753   1.357       .  S
C1748      C1749   1.409       .  A
C1749      C1750   1.404       .  A
C1749      F1752   1.357   1_554  S
C1750      F1754   1.358   1_454  S
C1757      C1758   1.406       .  A
C1757      C1762   1.400       .  A
C1757      F1775   1.358       .  S
C1758      C1759   1.404       .  A
C1758      C1763   1.481       .  S
C1759      C1760   1.400       .  A
C1759      F1764   1.358       .  S
C1760      C1761   1.407       .  A
C1760      F1776   1.358       .  S
C1761      C1762   1.406       .  A
C1762      F1765   1.358       .  S
C1763      C1766   1.404       .  A
C1763      C1770   1.404       .  A
C1766      C1767   1.403       .  A
C1766      F1771   1.357       .  S
C1767      C1768   1.409       .  A
C1767      F1773   1.357       .  S
C1768      C1769   1.409       .  A
C1769      C1770   1.399       .  A
C1769      F1772   1.358       .  S
C1770      F1774   1.358       .  S
C1777      C1778   1.405       .  A
C1777      C1782   1.402       .  A
C1777      F1795   1.358       .  S
C1778      C1779   1.406   1_554  A
C1778      C1783   1.489       .  S
C1779      C1780   1.403       .  A
C1779      F1784   1.358       .  S
C1780      C1781   1.410       .  A
C1780      F1796   1.357       .  S
C1781      C1782   1.410   1_556  A
C1782      F1785   1.357       .  S
C1783      C1786   1.405       .  A
C1783      C1790   1.406       .  A
C1786      C1787   1.402       .  A
C1786      F1791   1.358       .  S
C1787      C1788   1.411       .  A
C1787      F1793   1.358       .  S
C1788      C1789   1.410       .  A
C1789      C1790   1.404       .  A
C1789      F1792   1.357       .  S
C1790      F1794   1.358       .  S
C1797      C1798   1.408       .  A
C1797      C1802   1.401       .  A
C1797      F1815   1.358   1_556  S
C1798      C1799   1.406       .  A
C1798      C1803   1.490       .  S
C1799      C1800   1.398       .  A
C1799      F1804   1.358       .  S
C1800      C1801   1.410       .  A
C1800      F1816   1.357       .  S
C1801      C1802   1.409       .  A
C1802      F1805   1.357       .  S
C1803      C1806   1.408       .  A
C1803      C1810   1.405       .  A
C1806      C1807   1.403       .  A
C1806      F1811   1.358       .  S
C1807      C1808   1.410       .  A
C1807      F1813   1.356       .  S
C1808      C1809   1.412       .  A
C1809      C1810   1.396       .  A
C1809      F1812   1.357       .  S
C1810      F1814   1.358       .  S
C1817      C1818   1.408       .  A
C1817      C1822   1.404       .  A
C1817      F1835   1.358       .  S
C1818      C1819   1.407       .  A
C1818      C1823   1.490       .  S
C1819      C1820   1.400       .  A
C1819      F1824   1.358       .  S
C1820      C1821   1.408       .  A
C1820      F1836   1.358       .  S
C1821      C1822   1.408       .  A
C1822      F1825   1.358       .  S
C1823      C1826   1.406       .  A
C1823      C1830   1.406       .  A
C1826      C1827   1.404       .  A
C1826      F1831   1.358       .  S
C1827      C1828   1.410       .  A
C1827      F1833   1.357       .  S
C1828      C1829   1.409       .  A
C1829      C1830   1.401       .  A
C1829      F1832   1.357       .  S
C1830      F1834   1.358       .  S
C1837      C1838   1.409       .  A
C1837      C1842   1.405       .  A
C1837      F1855   1.357       .  S
C1838      C1839   1.404       .  A
C1838      C1843   1.488       .  S
C1839      C1840   1.395       .  A
C1839      F1844   1.358       .  S
C1840      C1841   1.410       .  A
C1840      F1856   1.357       .  S
C1841      C1842   1.408       .  A
C1842      F1845   1.357       .  S
C1843      C1846   1.410       .  A
C1843      C1850   1.405       .  A
C1846      C1847   1.402       .  A
C1846      F1851   1.358       .  S
C1847      C1848   1.404       .  A
C1847      F1853   1.358       .  S
C1848      C1849   1.408       .  A
C1849      C1850   1.400       .  A
C1849      F1852   1.358       .  S
C1850      F1854   1.358       .  S
C1857      C1858   1.407       .  A
C1857      C1862   1.399       .  A
C1857      F1875   1.358       .  S
C1858      C1859   1.409       .  A
C1858      C1863   1.493       .  S
C1859      C1860   1.405       .  A
C1859      F1864   1.358       .  S
C1860      C1861   1.409       .  A
C1860      F1876   1.357       .  S
C1861      C1862   1.409       .  A
C1862      F1865   1.357       .  S
C1863      C1866   1.408       .  A
C1863      C1870   1.409       .  A
C1866      C1867   1.399       .  A
C1866      F1871   1.358       .  S
C1867      C1868   1.408       .  A
C1867      F1873   1.358       .  S
C1868      C1869   1.409       .  A
C1869      C1870   1.404       .  A
C1869      F1872   1.358       .  S
C1870      F1874   1.358       .  S
C1877      C1878   1.403       .  A
C1877      C1882   1.397       .  A
C1877      F1895   1.358       .  S
C1878      C1879   1.407       .  A
C1878      C1883   1.486       .  S
C1879      C1880   1.405       .  A
C1879      F1884   1.358       .  S
C1880      C1881   1.410       .  A
C1880      F1896   1.357       .  S
C1881      C1882   1.413       .  A
C1882      F1885   1.357       .  S
C1883      C1886   1.405       .  A
C1883      C1890   1.410       .  A
C1886      C1887   1.398       .  A
C1886      F1891   1.357       .  S
C1887      C1888   1.406       .  A
C1887      F1893   1.358       .  S
C1888      C1889   1.405       .  A
C1889      C1890   1.403       .  A
C1889      F1892   1.358       .  S
C1890      F1894   1.358       .  S
C1897      C1898   1.406       .  A
C1897      C1902   1.401       .  A
C1897      F1915   1.358       .  S
C1898      C1899   1.403       .  A
C1898      C1903   1.480   1_556  S
C1899      C1900   1.399       .  A
C1899      F1904   1.358   1_556  S
C1900      C1901   1.409       .  A
C1900      F1916   1.358       .  S
C1901      C1902   1.408       .  A
C1902      F1905   1.357       .  S
C1903      C1906   1.405       .  A
C1903      C1910   1.402       .  A
C1906      C1907   1.405       .  A
C1906      F1911   1.358       .  S
C1907      C1908   1.410       .  A
C1907      F1913   1.357       .  S
C1908      C1909   1.409       .  A
C1909      C1910   1.395       .  A
C1909      F1912   1.357       .  S
C1910      F1914   1.358       .  S
C1917      C1918   1.406   1_556  A
C1917      C1922   1.402       .  A
C1917      F1935   1.358       .  S
C1918      C1919   1.405       .  A
C1918      C1923   1.485       .  S
C1919      C1920   1.399       .  A
C1919      F1924   1.358       .  S
C1920      C1921   1.409   1_554  A
C1920      F1936   1.357       .  S
C1921      C1922   1.409       .  A
C1922      F1925   1.357       .  S
C1923      C1926   1.407       .  A
C1923      C1930   1.407       .  A
C1926      C1927   1.401       .  A
C1926      F1931   1.358       .  S
C1927      C1928   1.406       .  A
C1927      F1933   1.358       .  S
C1928      C1929   1.406       .  A
C1929      C1930   1.399       .  A
C1929      F1932   1.358       .  S
C1930      F1934   1.358       .  S
C1937      C1938   1.407       .  A
C1937      C1942   1.406       .  A
C1937      F1955   1.358       .  S
C1938      C1939   1.406   1_554  A
C1938      C1943   1.491       .  S
C1939      C1940   1.400       .  A
C1939      F1944   1.358       .  S
C1940      C1941   1.408       .  A
C1940      F1956   1.358       .  S
C1941      C1942   1.410   1_556  A
C1942      F1945   1.358       .  S
C1943      C1946   1.406       .  A
C1943      C1950   1.406       .  A
C1946      C1947   1.405       .  A
C1946      F1951   1.358       .  S
C1947      C1948   1.411       .  A
C1947      F1953   1.357       .  S
C1948      C1949   1.410       .  A
C1949      C1950   1.401       .  A
C1949      F1952   1.357       .  S
C1950      F1954   1.358       .  S
C1957      C1958   1.406       .  A
C1957      C1962   1.402   1_554  A
C1957      F1975   1.358   1_545  S
C1958      C1959   1.407       .  A
C1958      C1963   1.488       .  S
C1959      C1960   1.403   1_554  A
C1959      F1964   1.358       .  S
C1960      C1961   1.408       .  A
C1960      F1976   1.358       .  S
C1961      C1962   1.408       .  A
C1962      F1965   1.357       .  S
C1963      C1966   1.408       .  A
C1963      C1970   1.407       .  A
C1966      C1967   1.403       .  A
C1966      F1971   1.357       .  S
C1967      C1968   1.405       .  A
C1967      F1973   1.358       .  S
C1968      C1969   1.407       .  A
C1969      C1970   1.402       .  A
C1969      F1972   1.358       .  S
C1970      F1974   1.358   1_554  S
C1977      C1978   1.405   1_554  A
C1977      C1982   1.405       .  A
C1977      F1995   1.358       .  S
C1978      C1979   1.402       .  A
C1978      C1983   1.484   1_556  S
C1979      C1980   1.399       .  A
C1979      F1984   1.358       .  S
C1980      C1981   1.413       .  A
C1980      F1996   1.357       .  S
C1981      C1982   1.411   1_556  A
C1982      F1985   1.357       .  S
C1983      C1986   1.406       .  A
C1983      C1990   1.405       .  A
C1986      C1987   1.405       .  A
C1986      F1991   1.357       .  S
C1987      C1988   1.407       .  A
C1987      F1993   1.358       .  S
C1988      C1989   1.405       .  A
C1989      C1990   1.398       .  A
C1989      F1992   1.358       .  S
C1990      F1994   1.358   1_554  S
C1997      C1998   1.405       .  A
C1997      C2002   1.404       .  A
C1997      F2015   1.358       .  S
C1998      C1999   1.404       .  A
C1998      C2003   1.491       .  S
C1999      C2000   1.402       .  A
C1999      F2004   1.358       .  S
C2000      C2001   1.414       .  A
C2000      F2016   1.356       .  S
C2001      C2002   1.414       .  A
C2002      F2005   1.356       .  S
C2003      C2006   1.406       .  A
C2003      C2010   1.407       .  A
C2006      C2007   1.402       .  A
C2006      F2011   1.358       .  S
C2007      C2008   1.410       .  A
C2007      F2013   1.358       .  S
C2008      C2009   1.409       .  A
C2009      C2010   1.403       .  A
C2009      F2012   1.358       .  S
C2010      F2014   1.358       .  S
C2017      C2018   1.406       .  A
C2017      C2022   1.401       .  A
C2017      F2035   1.358       .  S
C2018      C2019   1.404       .  A
C2018      C2023   1.484       .  S
C2019      C2020   1.399       .  A
C2019      F2024   1.358       .  S
C2020      C2021   1.412       .  A
C2020      F2036   1.357       .  S
C2021      C2022   1.409       .  A
C2022      F2025   1.357       .  S
C2023      C2026   1.405       .  A
C2023      C2030   1.406       .  A
C2026      C2027   1.399       .  A
C2026      F2031   1.358       .  S
C2027      C2028   1.408       .  A
C2027      F2033   1.358       .  S
C2028      C2029   1.409       .  A
C2029      C2030   1.400       .  A
C2029      F2032   1.358       .  S
C2030      F2034   1.358       .  S
C2037      C2038   1.405       .  A
C2037      C2042   1.399       .  A
C2037      F2055   1.358       .  S
C2038      C2039   1.407       .  A
C2038      C2043   1.487       .  S
C2039      C2040   1.403       .  A
C2039      F2044   1.357       .  S
C2040      C2041   1.409       .  A
C2040      F2056   1.357       .  S
C2041      C2042   1.411       .  A
C2042      F2045   1.358       .  S
C2043      C2046   1.405       .  A
C2043      C2050   1.408       .  A
C2046      C2047   1.400       .  A
C2046      F2051   1.358       .  S
C2047      C2048   1.410       .  A
C2047      F2053   1.358       .  S
C2048      C2049   1.408       .  A
C2049      C2050   1.402       .  A
C2049      F2052   1.357       .  S
C2050      F2054   1.358       .  S
C2057      C2058   1.405       .  A
C2057      C2062   1.405   1_545  A
C2057      F2075   1.358       .  S
C2058      C2059   1.400       .  A
C2058      C2063   1.477       .  S
C2059      C2060   1.395       .  A
C2059      F2064   1.358       .  S
C2060      C2061   1.411   1_545  A
C2060      F2076   1.357       .  S
C2061      C2062   1.410       .  A
C2062      F2065   1.357       .  S
C2063      C2066   1.403       .  A
C2063      C2070   1.403       .  A
C2066      C2067   1.403       .  A
C2066      F2071   1.357       .  S
C2067      C2068   1.410       .  A
C2067      F2073   1.357       .  S
C2068      C2069   1.407       .  A
C2069      C2070   1.395       .  A
C2069      F2072   1.358       .  S
C2070      F2074   1.358       .  S
C2077      C2078   1.407       .  A
C2077      C2082   1.401       .  A
C2077      F2095   1.358       .  S
C2078      C2079   1.409       .  A
C2078      C2083   1.493       .  S
C2079      C2080   1.402       .  A
C2079      F2084   1.358       .  S
C2080      C2081   1.409       .  A
C2080      F2096   1.358       .  S
C2081      C2082   1.410       .  A
C2082      F2085   1.358       .  S
C2083      C2086   1.407       .  A
C2083      C2090   1.406       .  A
C2086      C2087   1.402       .  A
C2086      F2091   1.358       .  S
C2087      C2088   1.411       .  A
C2087      F2093   1.356   1_545  S
C2088      C2089   1.412       .  A
C2089      C2090   1.401       .  A
C2089      F2092   1.357       .  S
C2090      F2094   1.358       .  S
C2097      C2098   1.403       .  A
C2097      C2102   1.398       .  A
C2097      F2115   1.358       .  S
C2098      C2099   1.407       .  A
C2098      C2103   1.484       .  S
C2099      C2100   1.404       .  A
C2099      F2104   1.358       .  S
C2100      C2101   1.408       .  A
C2100      F2116   1.357       .  S
C2101      C2102   1.410       .  A
C2102      F2105   1.358       .  S
C2103      C2106   1.402       .  A
C2103      C2110   1.407       .  A
C2106      C2107   1.396       .  A
C2106      F2111   1.358       .  S
C2107      C2108   1.411       .  A
C2107      F2113   1.357       .  S
C2108      C2109   1.408       .  A
C2109      C2110   1.405       .  A
C2109      F2112   1.357       .  S
C2110      F2114   1.357       .  S
C2117      C2118   1.404       .  A
C2117      C2122   1.404       .  A
C2117      F2135   1.358       .  S
C2118      C2119   1.404       .  A
C2118      C2123   1.487       .  S
C2119      C2120   1.404       .  A
C2119      F2124   1.358       .  S
C2120      C2121   1.412       .  A
C2120      F2136   1.357       .  S
C2121      C2122   1.413       .  A
C2122      F2125   1.358       .  S
C2123      C2126   1.404       .  A
C2123      C2130   1.404       .  A
C2126      C2127   1.404       .  A
C2126      F2131   1.358       .  S
C2127      C2128   1.413       .  A
C2127      F2133   1.357       .  S
C2128      C2129   1.411       .  A
C2129      C2130   1.404       .  A
C2129      F2132   1.357       .  S
C2130      F2134   1.357       .  S
C2137      C2138   1.409       .  A
C2137      C2142   1.402       .  A
C2137      F2155   1.358       .  S
C2138      C2139   1.404   1_565  A
C2138      C2143   1.484       .  S
C2139      C2140   1.395       .  A
C2139      F2144   1.358       .  S
C2140      C2141   1.407   1_545  A
C2140      F2156   1.358       .  S
C2141      C2142   1.405       .  A
C2142      F2145   1.358       .  S
C2143      C2146   1.407   1_565  A
C2143      C2150   1.405       .  A
C2146      C2147   1.400       .  A
C2146      F2151   1.358       .  S
C2147      C2148   1.407   1_545  A
C2147      F2153   1.357       .  S
C2148      C2149   1.408       .  A
C2149      C2150   1.397       .  A
C2149      F2152   1.358       .  S
C2150      F2154   1.358       .  S
C2157      C2158   1.406       .  A
C2157      C2162   1.403       .  A
C2157      F2175   1.358       .  S
C2158      C2159   1.405       .  A
C2158      C2163   1.487       .  S
C2159      C2160   1.400       .  A
C2159      F2164   1.358       .  S
C2160      C2161   1.410       .  A
C2160      F2176   1.357       .  S
C2161      C2162   1.410       .  A
C2162      F2165   1.357       .  S
C2163      C2166   1.407       .  A
C2163      C2170   1.406       .  A
C2166      C2167   1.403       .  A
C2166      F2171   1.358       .  S
C2167      C2168   1.407       .  A
C2167      F2173   1.358       .  S
C2168      C2169   1.408       .  A
C2169      C2170   1.401       .  A
C2169      F2172   1.358       .  S
C2170      F2174   1.358       .  S
C2177      C2178   1.405       .  A
C2177      C2182   1.401       .  A
C2177      F2195   1.358       .  S
C2178      C2179   1.402       .  A
C2178      C2183   1.479       .  S
C2179      C2180   1.400       .  A
C2179      F2184   1.358       .  S
C2180      C2181   1.409       .  A
C2180      F2196   1.358       .  S
C2181      C2182   1.407       .  A
C2182      F2185   1.357       .  S
C2183      C2186   1.406       .  A
C2183      C2190   1.402       .  A
C2186      C2187   1.405       .  A
C2186      F2191   1.357       .  S
C2187      C2188   1.407       .  A
C2187      F2193   1.357       .  S
C2188      C2189   1.408       .  A
C2189      C2190   1.396       .  A
C2189      F2192   1.358       .  S
C2190      F2194   1.358       .  S
C2197      C2198   1.406       .  A
C2197      C2202   1.404       .  A
C2197      F2215   1.358       .  S
C2198      C2199   1.405       .  A
C2198      C2203   1.489       .  S
C2199      C2200   1.403       .  A
C2199      F2204   1.358       .  S
C2200      C2201   1.411       .  A
C2200      F2216   1.357       .  S
C2201      C2202   1.410       .  A
C2202      F2205   1.357       .  S
C2203      C2206   1.405       .  A
C2203      C2210   1.405       .  A
C2206      C2207   1.403       .  A
C2206      F2211   1.358       .  S
C2207      C2208   1.411       .  A
C2207      F2213   1.358       .  S
C2208      C2209   1.412       .  A
C2209      C2210   1.403       .  A
C2209      F2212   1.358       .  S
C2210      F2214   1.358       .  S
C2217      C2218   1.403       .  A
C2217      C2222   1.401       .  A
C2217      F2235   1.358       .  S
C2218      C2219   1.407       .  A
C2218      C2223   1.486       .  S
C2219      C2220   1.404       .  A
C2219      F2224   1.358       .  S
C2220      C2221   1.407       .  A
C2220      F2236   1.357       .  S
C2221      C2222   1.410       .  A
C2222      F2225   1.358       .  S
C2223      C2226   1.403       .  A
C2223      C2230   1.407       .  A
C2226      C2227   1.399       .  A
C2226      F2231   1.358       .  S
C2227      C2228   1.412       .  A
C2227      F2233   1.358       .  S
C2228      C2229   1.408       .  A
C2229      C2230   1.406       .  A
C2229      F2232   1.357       .  S
C2230      F2234   1.357       .  S
C2237      C2238   1.404       .  A
C2237      C2242   1.403       .  A
C2237      F2255   1.357       .  S
C2238      C2239   1.403       .  A
C2238      C2243   1.479       .  S
C2239      C2240   1.398       .  A
C2239      F2244   1.358       .  S
C2240      C2241   1.406       .  A
C2240      F2256   1.358       .  S
C2241      C2242   1.408       .  A
C2242      F2245   1.358       .  S
C2243      C2246   1.404       .  A
C2243      C2250   1.402       .  A
C2246      C2247   1.403   1_545  A
C2246      F2251   1.358       .  S
C2247      C2248   1.408       .  A
C2247      F2253   1.357       .  S
C2248      C2249   1.410       .  A
C2249      C2250   1.399   1_565  A
C2249      F2252   1.358       .  S
C2250      F2254   1.358       .  S
C2257      C2258   1.404       .  A
C2257      C2262   1.404       .  A
C2257      F2275   1.358       .  S
C2258      C2259   1.404       .  A
C2258      C2263   1.483       .  S
C2259      C2260   1.403       .  A
C2259      F2264   1.358       .  S
C2260      C2261   1.410       .  A
C2260      F2276   1.358       .  S
C2261      C2262   1.408       .  A
C2262      F2265   1.357       .  S
C2263      C2266   1.405       .  A
C2263      C2270   1.405       .  A
C2266      C2267   1.403       .  A
C2266      F2271   1.358       .  S
C2267      C2268   1.407       .  A
C2267      F2273   1.358       .  S
C2268      C2269   1.407       .  A
C2269      C2270   1.403       .  A
C2269      F2272   1.358       .  S
C2270      F2274   1.357       .  S
C2277      C2278   1.407       .  A
C2277      C2282   1.403       .  A
C2277      F2295   1.358       .  S
C2278      C2279   1.407       .  A
C2278      C2283   1.491       .  S
C2279      C2280   1.402       .  A
C2279      F2284   1.358       .  S
C2280      C2281   1.407       .  A
C2280      F2296   1.357       .  S
C2281      C2282   1.409       .  A
C2282      F2285   1.358       .  S
C2283      C2286   1.408       .  A
C2283      C2290   1.408       .  A
C2286      C2287   1.402       .  A
C2286      F2291   1.358       .  S
C2287      C2288   1.407       .  A
C2287      F2293   1.358       .  S
C2288      C2289   1.406       .  A
C2289      C2290   1.403       .  A
C2289      F2292   1.358       .  S
C2290      F2294   1.358       .  S
C2297      C2298   1.404       .  A
C2297      C2302   1.398       .  A
C2297      F2315   1.358       .  S
C2298      C2299   1.406       .  A
C2298      C2303   1.479       .  S
C2299      C2300   1.398       .  A
C2299      F2304   1.358       .  S
C2300      C2301   1.406       .  A
C2300      F2316   1.358       .  S
C2301      C2302   1.407       .  A
C2302      F2305   1.358       .  S
C2303      C2306   1.403       .  A
C2303      C2310   1.406       .  A
C2306      C2307   1.395       .  A
C2306      F2311   1.358       .  S
C2307      C2308   1.408       .  A
C2307      F2313   1.358       .  S
C2308      C2309   1.407       .  A
C2309      C2310   1.402       .  A
C2309      F2312   1.357       .  S
C2310      F2314   1.358       .  S
C2317      C2318   1.408       .  A
C2317      C2322   1.406       .  A
C2317      F2335   1.358       .  S
C2318      C2319   1.406       .  A
C2318      C2323   1.492       .  S
C2319      C2320   1.404       .  A
C2319      F2324   1.358       .  S
C2320      C2321   1.408       .  A
C2320      F2336   1.357       .  S
C2321      C2322   1.409       .  A
C2322      F2325   1.358       .  S
C2323      C2326   1.404       .  A
C2323      C2330   1.406       .  A
C2326      C2327   1.403       .  A
C2326      F2331   1.358       .  S
C2327      C2328   1.414       .  A
C2327      F2333   1.357       .  S
C2328      C2329   1.414       .  A
C2329      C2330   1.406       .  A
C2329      F2332   1.357       .  S
C2330      F2334   1.358       .  S
C2337      C2338   1.404       .  A
C2337      C2342   1.403       .  A
C2337      F2355   1.358       .  S
C2338      C2339   1.407       .  A
C2338      C2343   1.488       .  S
C2339      C2340   1.405       .  A
C2339      F2344   1.358       .  S
C2340      C2341   1.408       .  A
C2340      F2356   1.357       .  S
C2341      C2342   1.409       .  A
C2342      F2345   1.358       .  S
C2343      C2346   1.406       .  A
C2343      C2350   1.404       .  A
C2346      C2347   1.406       .  A
C2346      F2351   1.358       .  S
C2347      C2348   1.412       .  A
C2347      F2353   1.358       .  S
C2348      C2349   1.410       .  A
C2349      C2350   1.402       .  A
C2349      F2352   1.358       .  S
C2350      F2354   1.358       .  S
C2357      C2358   1.403       .  A
C2357      C2362   1.401       .  A
C2357      F2375   1.358       .  S
C2358      C2359   1.407       .  A
C2358      C2363   1.483       .  S
C2359      C2360   1.404       .  A
C2359      F2364   1.358       .  S
C2360      C2361   1.405       .  A
C2360      F2376   1.357       .  S
C2361      C2362   1.409       .  A
C2362      F2365   1.358       .  S
C2363      C2366   1.402       .  A
C2363      C2370   1.406       .  A
C2366      C2367   1.397       .  A
C2366      F2371   1.358       .  S
C2367      C2368   1.410       .  A
C2367      F2373   1.358       .  S
C2368      C2369   1.410       .  A
C2369      C2370   1.408       .  A
C2369      F2372   1.357       .  S
C2370      F2374   1.357       .  S
C2377      C2378   1.409       .  A
C2377      C2382   1.400       .  A
C2377      F2395   1.358       .  S
C2378      C2379   1.406       .  A
C2378      C2383   1.486       .  S
C2379      C2380   1.401       .  A
C2379      F2384   1.358       .  S
C2380      C2381   1.407       .  A
C2380      F2396   1.358       .  S
C2381      C2382   1.403       .  A
C2382      F2385   1.358       .  S
C2383      C2386   1.408       .  A
C2383      C2390   1.404       .  A
C2386      C2387   1.405       .  A
C2386      F2391   1.358       .  S
C2387      C2388   1.408       .  A
C2387      F2393   1.357       .  S
C2388      C2389   1.410       .  A
C2389      C2390   1.396       .  A
C2389      F2392   1.358       .  S
C2390      F2394   1.358       .  S
C2397      C2398   1.406   1_655  A
C2397      C2402   1.402       .  A
C2397      F2415   1.358       .  S
C2398      C2399   1.407       .  A
C2398      C2403   1.489       .  S
C2399      C2400   1.402   1_455  A
C2399      F2404   1.358       .  S
C2400      C2401   1.409       .  A
C2400      F2416   1.358       .  S
C2401      C2402   1.408       .  A
C2402      F2405   1.357       .  S
C2403      C2406   1.408       .  A
C2403      C2410   1.407       .  A
C2406      C2407   1.402       .  A
C2406      F2411   1.358   1_455  S
C2407      C2408   1.407       .  A
C2407      F2413   1.358       .  S
C2408      C2409   1.406       .  A
C2409      C2410   1.401       .  A
C2409      F2412   1.358       .  S
C2410      F2414   1.358       .  S
C2417      C2418   1.409       .  A
C2417      C2422   1.399   1_455  A
C2417      F2435   1.358   1_455  S
C2418      C2419   1.409       .  A
C2418      C2423   1.489       .  S
C2419      C2420   1.401       .  A
C2419      F2424   1.358       .  S
C2420      C2421   1.404   1_455  A
C2420      F2436   1.358       .  S
C2421      C2422   1.402       .  A
C2422      F2425   1.358       .  S
C2423      C2426   1.408       .  A
C2423      C2430   1.408       .  A
C2426      C2427   1.401       .  A
C2426      F2431   1.358       .  S
C2427      C2428   1.406       .  A
C2427      F2433   1.358       .  S
C2428      C2429   1.405       .  A
C2429      C2430   1.400       .  A
C2429      F2432   1.358       .  S
C2430      F2434   1.358   1_455  S
C2437      C2438   1.403       .  A
C2437      C2442   1.398       .  A
C2437      F2455   1.358       .  S
C2438      C2439   1.408       .  A
C2438      C2443   1.483       .  S
C2439      C2440   1.402       .  A
C2439      F2444   1.358       .  S
C2440      C2441   1.407       .  A
C2440      F2456   1.358       .  S
C2441      C2442   1.407       .  A
C2442      F2445   1.358       .  S
C2443      C2446   1.402       .  A
C2443      C2450   1.407       .  A
C2446      C2447   1.396       .  A
C2446      F2451   1.359       .  S
C2447      C2448   1.412       .  A
C2447      F2453   1.357       .  S
C2448      C2449   1.409       .  A
C2449      C2450   1.406       .  A
C2449      F2452   1.357       .  S
C2450      F2454   1.357       .  S
C2457      C2458   1.408       .  A
C2457      C2462   1.405       .  A
C2457      F2475   1.358       .  S
C2458      C2459   1.405       .  A
C2458      C2463   1.492       .  S
C2459      C2460   1.398   1_455  A
C2459      F2464   1.358   1_455  S
C2460      C2461   1.411       .  A
C2460      F2476   1.357       .  S
C2461      C2462   1.412   1_655  A
C2462      F2465   1.357       .  S
C2463      C2466   1.409       .  A
C2463      C2470   1.407       .  A
C2466      C2467   1.402       .  A
C2466      F2471   1.358   1_455  S
C2467      C2468   1.407       .  A
C2467      F2473   1.357       .  S
C2468      C2469   1.409       .  A
C2469      C2470   1.401       .  A
C2469      F2472   1.358       .  S
C2470      F2474   1.358       .  S
C2477      C2478   1.406       .  A
C2477      C2482   1.404       .  A
C2477      F2495   1.358       .  S
C2478      C2479   1.405       .  A
C2478      C2483   1.489       .  S
C2479      C2480   1.402       .  A
C2479      F2484   1.358       .  S
C2480      C2481   1.411       .  A
C2480      F2496   1.357       .  S
C2481      C2482   1.410       .  A
C2482      F2485   1.357       .  S
C2483      C2486   1.407       .  A
C2483      C2490   1.406       .  A
C2486      C2487   1.404       .  A
C2486      F2491   1.358       .  S
C2487      C2488   1.410       .  A
C2487      F2493   1.358       .  S
C2488      C2489   1.407       .  A
C2489      C2490   1.400       .  A
C2489      F2492   1.358       .  S
C2490      F2494   1.358       .  S
C2497      C2498   1.402       .  A
C2497      C2502   1.403       .  A
C2497      F2515   1.358       .  S
C2498      C2499   1.405       .  A
C2498      C2503   1.486       .  S
C2499      C2500   1.404       .  A
C2499      F2504   1.358       .  S
C2500      C2501   1.412       .  A
C2500      F2516   1.356       .  S
C2501      C2502   1.416       .  A
C2502      F2505   1.357       .  S
C2503      C2506   1.401       .  A
C2503      C2510   1.406       .  A
C2506      C2507   1.397       .  A
C2506      F2511   1.358       .  S
C2507      C2508   1.413       .  A
C2507      F2513   1.357       .  S
C2508      C2509   1.412       .  A
C2509      C2510   1.409       .  A
C2509      F2512   1.357       .  S
C2510      F2514   1.357       .  S
C2517      C2518   1.403       .  A
C2517      C2522   1.403       .  A
C2517      F2535   1.358       .  S
C2518      C2519   1.402       .  A
C2518      C2523   1.483       .  S
C2519      C2520   1.403       .  A
C2519      F2524   1.358       .  S
C2520      C2521   1.413       .  A
C2520      F2536   1.357       .  S
C2521      C2522   1.412       .  A
C2522      F2525   1.357       .  S
C2523      C2526   1.403       .  A
C2523      C2530   1.405       .  A
C2526      C2527   1.400       .  A
C2526      F2531   1.358       .  S
C2527      C2528   1.409       .  A
C2527      F2533   1.358       .  S
C2528      C2529   1.410       .  A
C2529      C2530   1.404       .  A
C2529      F2532   1.358       .  S
C2530      F2534   1.358       .  S
C2537      C2538   1.409       .  A
C2537      C2542   1.404       .  A
C2537      F2555   1.357       .  S
C2538      C2539   1.405       .  A
C2538      C2543   1.490       .  S
C2539      C2540   1.397       .  A
C2539      F2544   1.358       .  S
C2540      C2541   1.411       .  A
C2540      F2556   1.358       .  S
C2541      C2542   1.407       .  A
C2542      F2545   1.357       .  S
C2543      C2546   1.409       .  A
C2543      C2550   1.405       .  A
C2546      C2547   1.402       .  A
C2546      F2551   1.358       .  S
C2547      C2548   1.408       .  A
C2547      F2553   1.357       .  S
C2548      C2549   1.411       .  A
C2549      C2550   1.399       .  A
C2549      F2552   1.358       .  S
C2550      F2554   1.358       .  S
C2557      C2558   1.404       .  A
C2557      C2562   1.401       .  A
C2557      F2575   1.358       .  S
C2558      C2559   1.403       .  A
C2558      C2563   1.481       .  S
C2559      C2560   1.397       .  A
C2559      F2564   1.358       .  S
C2560      C2561   1.413       .  A
C2560      F2576   1.357       .  S
C2561      C2562   1.409       .  A
C2562      F2565   1.356       .  S
C2563      C2566   1.406       .  A
C2563      C2570   1.405       .  A
C2566      C2567   1.403       .  A
C2566      F2571   1.358       .  S
C2567      C2568   1.407       .  A
C2567      F2573   1.357       .  S
C2568      C2569   1.406       .  A
C2569      C2570   1.395       .  A
C2569      F2572   1.358       .  S
C2570      F2574   1.358       .  S
C2577      C2578   1.407       .  A
C2577      C2582   1.405       .  A
C2577      F2595   1.358       .  S
C2578      C2579   1.406       .  A
C2578      C2583   1.494       .  S
C2579      C2580   1.403       .  A
C2579      F2584   1.358       .  S
C2580      C2581   1.411       .  A
C2580      F2596   1.357   1_545  S
C2581      C2582   1.412       .  A
C2582      F2585   1.357       .  S
C2583      C2586   1.408       .  A
C2583      C2590   1.407       .  A
C2586      C2587   1.405       .  A
C2586      F2591   1.358       .  S
C2587      C2588   1.410       .  A
C2587      F2593   1.358       .  S
C2588      C2589   1.409       .  A
C2589      C2590   1.403       .  A
C2589      F2592   1.358       .  S
C2590      F2594   1.358       .  S
C2597      C2598   1.406       .  A
C2597      C2602   1.405       .  A
C2597      F2615   1.358       .  S
C2598      C2599   1.404       .  A
C2598      C2603   1.486       .  S
C2599      C2600   1.401       .  A
C2599      F2604   1.358       .  S
C2600      C2601   1.409       .  A
C2600      F2616   1.357       .  S
C2601      C2602   1.410       .  A
C2602      F2605   1.357       .  S
C2603      C2606   1.406       .  A
C2603      C2610   1.406       .  A
C2606      C2607   1.403       .  A
C2606      F2611   1.358       .  S
C2607      C2608   1.406       .  A
C2607      F2613   1.358       .  S
C2608      C2609   1.407       .  A
C2609      C2610   1.403       .  A
C2609      F2612   1.358       .  S
C2610      F2614   1.358       .  S
C2617      C2618   1.403       .  A
C2617      C2622   1.402       .  A
C2617      F2635   1.357       .  S
C2618      C2619   1.402       .  A
C2618      C2623   1.477       .  S
C2619      C2620   1.398       .  A
C2619      F2624   1.358       .  S
C2620      C2621   1.410       .  A
C2620      F2636   1.358       .  S
C2621      C2622   1.409       .  A
C2622      F2625   1.357       .  S
C2623      C2626   1.404       .  A
C2623      C2630   1.400       .  A
C2626      C2627   1.403       .  A
C2626      F2631   1.357   1_545  S
C2627      C2628   1.409       .  A
C2627      F2633   1.357       .  S
C2628      C2629   1.411       .  A
C2629      C2630   1.397       .  A
C2629      F2632   1.358       .  S
C2630      F2634   1.358       .  S
C2637      C2638   1.402       .  A
C2637      C2642   1.403       .  A
C2637      F2655   1.358       .  S
C2638      C2639   1.402       .  A
C2638      C2643   1.486       .  S
C2639      C2640   1.401       .  A
C2639      F2644   1.358       .  S
C2640      C2641   1.415       .  A
C2640      F2656   1.355       .  S
C2641      C2642   1.417       .  A
C2642      F2645   1.356       .  S
C2643      C2646   1.404       .  A
C2643      C2650   1.406       .  A
C2646      C2647   1.400       .  A
C2646      F2651   1.358       .  S
C2647      C2648   1.410       .  A
C2647      F2653   1.358       .  S
C2648      C2649   1.410       .  A
C2649      C2650   1.403       .  A
C2649      F2652   1.358       .  S
C2650      F2654   1.358       .  S
C2657      C2658   1.405       .  A
C2657      C2662   1.404       .  A
C2657      F2675   1.358       .  S
C2658      C2659   1.401       .  A
C2658      C2663   1.479       .  S
C2659      C2660   1.398       .  A
C2659      F2664   1.358       .  S
C2660      C2661   1.409       .  A
C2660      F2676   1.357       .  S
C2661      C2662   1.409       .  A
C2662      F2665   1.357       .  S
C2663      C2666   1.402       .  A
C2663      C2670   1.403       .  A
C2666      C2667   1.400       .  A
C2666      F2671   1.358       .  S
C2667      C2668   1.411       .  A
C2667      F2673   1.358       .  S
C2668      C2669   1.411       .  A
C2669      C2670   1.402       .  A
C2669      F2672   1.358       .  S
C2670      F2674   1.358       .  S
C2677      C2678   1.405       .  A
C2677      C2682   1.403       .  A
C2677      F2695   1.358       .  S
C2678      C2679   1.402       .  A
C2678      C2683   1.485       .  S
C2679      C2680   1.396       .  A
C2679      F2684   1.359       .  S
C2680      C2681   1.416       .  A
C2680      F2696   1.356       .  S
C2681      C2682   1.412       .  A
C2682      F2685   1.356       .  S
C2683      C2686   1.407       .  A
C2683      C2690   1.404       .  A
C2686      C2687   1.404       .  A
C2686      F2691   1.358       .  S
C2687      C2688   1.408       .  A
C2687      F2693   1.357       .  S
C2688      C2689   1.410       .  A
C2689      C2690   1.395       .  A
C2689      F2692   1.357       .  S
C2690      F2694   1.358       .  S
C2697      C2698   1.403       .  A
C2697      C2702   1.401       .  A
C2697      F2715   1.358       .  S
C2698      C2699   1.401       .  A
C2698      C2703   1.477       .  S
C2699      C2700   1.397       .  A
C2699      F2704   1.358       .  S
C2700      C2701   1.412       .  A
C2700      F2716   1.357       .  S
C2701      C2702   1.409       .  A
C2702      F2705   1.357       .  S
C2703      C2706   1.404       .  A
C2703      C2710   1.402       .  A
C2706      C2707   1.402       .  A
C2706      F2711   1.357       .  S
C2707      C2708   1.408       .  A
C2707      F2713   1.357       .  S
C2708      C2709   1.410       .  A
C2709      C2710   1.396       .  A
C2709      F2712   1.358       .  S
C2710      F2714   1.358       .  S
C2717      C2718   1.405       .  A
C2717      C2722   1.402       .  A
C2717      F2735   1.358       .  S
C2718      C2719   1.405       .  A
C2718      C2723   1.487       .  S
C2719      C2720   1.400       .  A
C2719      F2724   1.358       .  S
C2720      C2721   1.409       .  A
C2720      F2736   1.357       .  S
C2721      C2722   1.411       .  A
C2722      F2725   1.357       .  S
C2723      C2726   1.406       .  A
C2723      C2730   1.405       .  A
C2726      C2727   1.402       .  A
C2726      F2731   1.358       .  S
C2727      C2728   1.409       .  A
C2727      F2733   1.358       .  S
C2728      C2729   1.410       .  A
C2729      C2730   1.400       .  A
C2729      F2732   1.358       .  S
C2730      F2734   1.358       .  S
C2737      C2738   1.407       .  A
C2737      C2742   1.401       .  A
C2737      F2755   1.358       .  S
C2738      C2739   1.409       .  A
C2738      C2743   1.488       .  S
C2739      C2740   1.401       .  A
C2739      F2744   1.358       .  S
C2740      C2741   1.403       .  A
C2740      F2756   1.358       .  S
C2741      C2742   1.404       .  A
C2742      F2745   1.358       .  S
C2743      C2746   1.409       .  A
C2743      C2750   1.406       .  A
C2746      C2747   1.402       .  A
C2746      F2751   1.358       .  S
C2747      C2748   1.406       .  A
C2747      F2753   1.358       .  S
C2748      C2749   1.407       .  A
C2749      C2750   1.401       .  A
C2749      F2752   1.358       .  S
C2750      F2754   1.358       .  S
C2757      C2758   1.403       .  A
C2757      C2762   1.399       .  A
C2757      F2775   1.358       .  S
C2758      C2759   1.404       .  A
C2758      C2763   1.486       .  S
C2759      C2760   1.402       .  A
C2759      F2764   1.358       .  S
C2760      C2761   1.415       .  A
C2760      F2776   1.356       .  S
C2761      C2762   1.414       .  A
C2762      F2765   1.355       .  S
C2763      C2766   1.406       .  A
C2763      C2770   1.406       .  A
C2766      C2767   1.402       .  A
C2766      F2771   1.358       .  S
C2767      C2768   1.410       .  A
C2767      F2773   1.358       .  S
C2768      C2769   1.408       .  A
C2769      C2770   1.399       .  A
C2769      F2772   1.358       .  S
C2770      F2774   1.358       .  S
C2777      C2778   1.404       .  A
C2777      C2782   1.397       .  A
C2777      F2795   1.358       .  S
C2778      C2779   1.407       .  A
C2778      C2783   1.488       .  S
C2779      C2780   1.402       .  A
C2779      F2784   1.358       .  S
C2780      C2781   1.411       .  A
C2780      F2796   1.356       .  S
C2781      C2782   1.412       .  A
C2782      F2785   1.357       .  S
C2783      C2786   1.405       .  A
C2783      C2790   1.408       .  A
C2786      C2787   1.397       .  A
C2786      F2791   1.358       .  S
C2787      C2788   1.410       .  A
C2787      F2793   1.357       .  S
C2788      C2789   1.410       .  A
C2789      C2790   1.402       .  A
C2789      F2792   1.357       .  S
C2790      F2794   1.358       .  S
C2797      C2798   1.407       .  A
C2797      C2802   1.403       .  A
C2797      F2815   1.358       .  S
C2798      C2799   1.410       .  A
C2798      C2803   1.498       .  S
C2799      C2800   1.407       .  A
C2799      F2804   1.357       .  S
C2800      C2801   1.409       .  A
C2800      F2816   1.357       .  S
C2801      C2802   1.411       .  A
C2802      F2805   1.357       .  S
C2803      C2806   1.410       .  A
C2803      C2810   1.409       .  A
C2806      C2807   1.404       .  A
C2806      F2811   1.358       .  S
C2807      C2808   1.408       .  A
C2807      F2813   1.358       .  S
C2808      C2809   1.409       .  A
C2809      C2810   1.405       .  A
C2809      F2812   1.358       .  S
C2810      F2814   1.358       .  S
C2817      C2818   1.406       .  A
C2817      C2822   1.399       .  A
C2817      F2835   1.358       .  S
C2818      C2819   1.406       .  A
C2818      C2823   1.489       .  S
C2819      C2820   1.406       .  A
C2819      F2824   1.357       .  S
C2820      C2821   1.409       .  A
C2820      F2836   1.357       .  S
C2821      C2822   1.409       .  A
C2822      F2825   1.358       .  S
C2823      C2826   1.405       .  A
C2823      C2830   1.409       .  A
C2826      C2827   1.399       .  A
C2826      F2831   1.358       .  S
C2827      C2828   1.408       .  A
C2827      F2833   1.358       .  S
C2828      C2829   1.405       .  A
C2829      C2830   1.407       .  A
C2829      F2832   1.357       .  S
C2830      F2834   1.357       .  S
C2837      C2838   1.405       .  A
C2837      C2842   1.401       .  A
C2837      F2855   1.358       .  S
C2838      C2839   1.406       .  A
C2838      C2843   1.488       .  S
C2839      C2840   1.403       .  A
C2839      F2844   1.358       .  S
C2840      C2841   1.410       .  A
C2840      F2856   1.357       .  S
C2841      C2842   1.412       .  A
C2842      F2845   1.357       .  S
C2843      C2846   1.408       .  A
C2843      C2850   1.406       .  A
C2846      C2847   1.405       .  A
C2846      F2851   1.358       .  S
C2847      C2848   1.407       .  A
C2847      F2853   1.357       .  S
C2848      C2849   1.406       .  A
C2849      C2850   1.401       .  A
C2849      F2852   1.358       .  S
C2850      F2854   1.358       .  S
C2857      C2858   1.402       .  A
C2857      C2862   1.395       .  A
C2857      F2875   1.358       .  S
C2858      C2859   1.406       .  A
C2858      C2863   1.484       .  S
C2859      C2860   1.406       .  A
C2859      F2864   1.357       .  S
C2860      C2861   1.411       .  A
C2860      F2876   1.357       .  S
C2861      C2862   1.412       .  A
C2862      F2865   1.357       .  S
C2863      C2866   1.403       .  A
C2863      C2870   1.407       .  A
C2866      C2867   1.399       .  A
C2866      F2871   1.358       .  S
C2867      C2868   1.408       .  A
C2867      F2873   1.358       .  S
C2868      C2869   1.408       .  A
C2869      C2870   1.402       .  A
C2869      F2872   1.358       .  S
C2870      F2874   1.358       .  S
C2877      C2878   1.402       .  A
C2877      C2882   1.397       .  A
C2877      F2895   1.358       .  S
C2878      C2879   1.404       .  A
C2878      C2883   1.475       .  S
C2879      C2880   1.397       .  A
C2879      F2884   1.358       .  S
C2880      C2881   1.407       .  A
C2880      F2896   1.357       .  S
C2881      C2882   1.411       .  A
C2882      F2885   1.358       .  S
C2883      C2886   1.402       .  A
C2883      C2890   1.406       .  A
C2886      C2887   1.393       .  A
C2886      F2891   1.358       .  S
C2887      C2888   1.407       .  A
C2887      F2893   1.358       .  S
C2888      C2889   1.406       .  A
C2889      C2890   1.402       .  A
C2889      F2892   1.358       .  S
C2890      F2894   1.358       .  S
C2897      C2898   1.405       .  A
C2897      C2902   1.404       .  A
C2897      F2915   1.358       .  S
C2898      C2899   1.405       .  A
C2898      C2903   1.486       .  S
C2899      C2900   1.404       .  A
C2899      F2904   1.358       .  S
C2900      C2901   1.409       .  A
C2900      F2916   1.357       .  S
C2901      C2902   1.410       .  A
C2902      F2905   1.358       .  S
C2903      C2906   1.404       .  A
C2903      C2910   1.406       .  A
C2906      C2907   1.402       .  A
C2906      F2911   1.357       .  S
C2907      C2908   1.409       .  A
C2907      F2913   1.358       .  S
C2908      C2909   1.409       .  A
C2909      C2910   1.404       .  A
C2909      F2912   1.358       .  S
C2910      F2914   1.358       .  S
C2917      C2918   1.406       .  A
C2917      C2922   1.402       .  A
C2917      F2935   1.358       .  S
C2918      C2919   1.410       .  A
C2918      C2923   1.494       .  S
C2919      C2920   1.407       .  A
C2919      F2924   1.358       .  S
C2920      C2921   1.408       .  A
C2920      F2936   1.358       .  S
C2921      C2922   1.407       .  A
C2922      F2925   1.357       .  S
C2923      C2926   1.408       .  A
C2923      C2930   1.409       .  A
C2926      C2927   1.405       .  A
C2926      F2931   1.358       .  S
C2927      C2928   1.407       .  A
C2927      F2933   1.358       .  S
C2928      C2929   1.405       .  A
C2929      C2930   1.403       .  A
C2929      F2932   1.358       .  S
C2930      F2934   1.358       .  S
C2937      C2938   1.404       .  A
C2937      C2942   1.399       .  A
C2937      F2955   1.358       .  S
C2938      C2939   1.408       .  A
C2938      C2943   1.489       .  S
C2939      C2940   1.406       .  A
C2939      F2944   1.358       .  S
C2940      C2941   1.409       .  A
C2940      F2956   1.357       .  S
C2941      C2942   1.409       .  A
C2942      F2945   1.358       .  S
C2943      C2946   1.404       .  A
C2943      C2950   1.408       .  A
C2946      C2947   1.401       .  A
C2946      F2951   1.358       .  S
C2947      C2948   1.410       .  A
C2947      F2953   1.358       .  S
C2948      C2949   1.406       .  A
C2949      C2950   1.404       .  A
C2949      F2952   1.357       .  S
C2950      F2954   1.358       .  S
C2957      C2958   1.405       .  A
C2957      C2962   1.403       .  A
C2957      F2975   1.358       .  S
C2958      C2959   1.406       .  A
C2958      C2963   1.490       .  S
C2959      C2960   1.404       .  A
C2959      F2964   1.358       .  S
C2960      C2961   1.412       .  A
C2960      F2976   1.357       .  S
C2961      C2962   1.411       .  A
C2962      F2965   1.357       .  S
C2963      C2966   1.407       .  A
C2963      C2970   1.406       .  A
C2966      C2967   1.404       .  A
C2966      F2971   1.358       .  S
C2967      C2968   1.409       .  A
C2967      F2973   1.358       .  S
C2968      C2969   1.409       .  A
C2969      C2970   1.402       .  A
C2969      F2972   1.358       .  S
C2970      F2974   1.358       .  S
C2977      C2978   1.406       .  A
C2977      C2982   1.407       .  A
C2977      F2995   1.358       .  S
C2978      C2979   1.404       .  A
C2978      C2983   1.493       .  S
C2979      C2980   1.404       .  A
C2979      F2984   1.358       .  S
C2980      C2981   1.415       .  A
C2980      F2996   1.357       .  S
C2981      C2982   1.413       .  A
C2982      F2985   1.356       .  S
C2983      C2986   1.407       .  A
C2983      C2990   1.407       .  A
C2986      C2987   1.405       .  A
C2986      F2991   1.357       .  S
C2987      C2988   1.408       .  A
C2987      F2993   1.358       .  S
C2988      C2989   1.410       .  A
C2989      C2990   1.406       .  A
C2989      F2992   1.358       .  S
C2990      F2994   1.358       .  S
C2997      C2998   1.409       .  A
C2997      C3002   1.408       .  A
C2997      F3015   1.358       .  S
C2998      C2999   1.402       .  A
C2998      C3003   1.491       .  S
C2999      C3000   1.402       .  A
C2999      F3004   1.358       .  S
C3000      C3001   1.413       .  A
C3000      F3016   1.357       .  S
C3001      C3002   1.409       .  A
C3002      F3005   1.357       .  S
C3003      C3006   1.408       .  A
C3003      C3010   1.401       .  A
C3006      C3007   1.411       .  A
C3006      F3011   1.357       .  S
C3007      C3008   1.413       .  A
C3007      F3013   1.357       .  S
C3008      C3009   1.413       .  A
C3009      C3010   1.398       .  A
C3009      F3012   1.357       .  S
C3010      F3014   1.358       .  S
C3017      C3018   1.400       .  A
C3017      C3022   1.398       .  A
C3017      F3035   1.358       .  S
C3018      C3019   1.405       .  A
C3018      C3023   1.479       .  S
C3019      C3020   1.405       .  A
C3019      F3024   1.358       .  S
C3020      C3021   1.410       .  A
C3020      F3036   1.357       .  S
C3021      C3022   1.410       .  A
C3022      F3025   1.358       .  S
C3023      C3026   1.403       .  A
C3023      C3030   1.405       .  A
C3026      C3027   1.398       .  A
C3026      F3031   1.358       .  S
C3027      C3028   1.407       .  A
C3027      F3033   1.358       .  S
C3028      C3029   1.407       .  A
C3029      C3030   1.405       .  A
C3029      F3032   1.357       .  S
C3030      F3034   1.357       .  S
C3037      C3038   1.408       .  A
C3037      C3042   1.403       .  A
C3037      F3055   1.358       .  S
C3038      C3039   1.409       .  A
C3038      C3043   1.494       .  S
C3039      C3040   1.402       .  A
C3039      F3044   1.358       .  S
C3040      C3041   1.408       .  A
C3040      F3056   1.358       .  S
C3041      C3042   1.410       .  A
C3042      F3045   1.358       .  S
C3043      C3046   1.408       .  A
C3043      C3050   1.407       .  A
C3046      C3047   1.404       .  A
C3046      F3051   1.358       .  S
C3047      C3048   1.411       .  A
C3047      F3053   1.357       .  S
C3048      C3049   1.411       .  A
C3049      C3050   1.401       .  A
C3049      F3052   1.357       .  S
C3050      F3054   1.358       .  S
C3057      C3058   1.405       .  A
C3057      C3062   1.403       .  A
C3057      F3075   1.358       .  S
C3058      C3059   1.405       .  A
C3058      C3063   1.488       .  S
C3059      C3060   1.400       .  A
C3059      F3064   1.358       .  S
C3060      C3061   1.411       .  A
C3060      F3076   1.357       .  S
C3061      C3062   1.411       .  A
C3062      F3065   1.357       .  S
C3063      C3066   1.407       .  A
C3063      C3070   1.405       .  A
C3066      C3067   1.404       .  A
C3066      F3071   1.358       .  S
C3067      C3068   1.409       .  A
C3067      F3073   1.358       .  S
C3068      C3069   1.410       .  A
C3069      C3070   1.399       .  A
C3069      F3072   1.358       .  S
C3070      F3074   1.358       .  S
C3077      C3078   1.404       .  A
C3077      C3082   1.405       .  A
C3077      F3095   1.357       .  S
C3078      C3079   1.402       .  A
C3078      C3083   1.483       .  S
C3079      C3080   1.397       .  A
C3079      F3084   1.358       .  S
C3080      C3081   1.413       .  A
C3080      F3096   1.357       .  S
C3081      C3082   1.412       .  A
C3082      F3085   1.356       .  S
C3083      C3086   1.406       .  A
C3083      C3090   1.404       .  A
C3086      C3087   1.401       .  A
C3086      F3091   1.358       .  S
C3087      C3088   1.405       .  A
C3087      F3093   1.358       .  S
C3088      C3089   1.407       .  A
C3089      C3090   1.401       .  A
C3089      F3092   1.358       .  S
C3090      F3094   1.358       .  S
C3097      C3098   1.406       .  A
C3097      C3102   1.404       .  A
C3097      F3115   1.357       .  S
C3098      C3099   1.404       .  A
C3098      C3103   1.483       .  S
C3099      C3100   1.398       .  A
C3099      F3104   1.358       .  S
C3100      C3101   1.409       .  A
C3100      F3116   1.358       .  S
C3101      C3102   1.407       .  A
C3102      F3105   1.357       .  S
C3103      C3106   1.404       .  A
C3103      C3110   1.403       .  A
C3106      C3107   1.404       .  A
C3106      F3111   1.358       .  S
C3107      C3108   1.411       .  A
C3107      F3113   1.357       .  S
C3108      C3109   1.411       .  A
C3109      C3110   1.398       .  A
C3109      F3112   1.357       .  S
C3110      F3114   1.358       .  S
C3117      C3118   1.409       .  A
C3117      C3122   1.403       .  A
C3117      F3135   1.358       .  S
C3118      C3119   1.409   1_554  A
C3118      C3123   1.494       .  S
C3119      C3120   1.403   1_556  A
C3119      F3124   1.358       .  S
C3120      C3121   1.407       .  A
C3120      F3136   1.358   1_554  S
C3121      C3122   1.406       .  A
C3122      F3125   1.358       .  S
C3123      C3126   1.407       .  A
C3123      C3130   1.409   1_554  A
C3126      C3127   1.402   1_554  A
C3126      F3131   1.358       .  S
C3127      C3128   1.409       .  A
C3127      F3133   1.358       .  S
C3128      C3129   1.407       .  A
C3129      C3130   1.404       .  A
C3129      F3132   1.357       .  S
C3130      F3134   1.358       .  S
C3137      C3138   1.408       .  A
C3137      C3142   1.406       .  A
C3137      F3155   1.357       .  S
C3138      C3139   1.404       .  A
C3138      C3143   1.487       .  S
C3139      C3140   1.398       .  A
C3139      F3144   1.358       .  S
C3140      C3141   1.410       .  A
C3140      F3156   1.358       .  S
C3141      C3142   1.408       .  A
C3142      F3145   1.357       .  S
C3143      C3146   1.409       .  A
C3143      C3150   1.403       .  A
C3146      C3147   1.404       .  A
C3146      F3151   1.358       .  S
C3147      C3148   1.407       .  A
C3147      F3153   1.357       .  S
C3148      C3149   1.409       .  A
C3149      C3150   1.399       .  A
C3149      F3152   1.358       .  S
C3150      F3154   1.358       .  S
C3157      C3158   1.405       .  A
C3157      C3162   1.404       .  A
C3157      F3175   1.358   1_554  S
C3158      C3159   1.405       .  A
C3158      C3163   1.492       .  S
C3159      C3160   1.405       .  A
C3159      F3164   1.358       .  S
C3160      C3161   1.412       .  A
C3160      F3176   1.357       .  S
C3161      C3162   1.412       .  A
C3162      F3165   1.357   1_554  S
C3163      C3166   1.406       .  A
C3163      C3170   1.407   1_554  A
C3166      C3167   1.404   1_554  A
C3166      F3171   1.358       .  S
C3167      C3168   1.409       .  A
C3167      F3173   1.358       .  S
C3168      C3169   1.408       .  A
C3169      C3170   1.405       .  A
C3169      F3172   1.358       .  S
C3170      F3174   1.358       .  S
C3177      C3178   1.407       .  A
C3177      C3182   1.406       .  A
C3177      F3195   1.358       .  S
C3178      C3179   1.402       .  A
C3178      C3183   1.484       .  S
C3179      C3180   1.396       .  A
C3179      F3184   1.358       .  S
C3180      C3181   1.410       .  A
C3180      F3196   1.357       .  S
C3181      C3182   1.411       .  A
C3182      F3185   1.357       .  S
C3183      C3186   1.407       .  A
C3183      C3190   1.403       .  A
C3186      C3187   1.402       .  A
C3186      F3191   1.358       .  S
C3187      C3188   1.409       .  A
C3187      F3193   1.357       .  S
C3188      C3189   1.410       .  A
C3189      C3190   1.400       .  A
C3189      F3192   1.358       .  S
C3190      F3194   1.358       .  S
C3197      C3198   1.402   1_556  A
C3197      C3202   1.397       .  A
C3197      F3215   1.358       .  S
C3198      C3199   1.404       .  A
C3198      C3203   1.479       .  S
C3199      C3200   1.403       .  A
C3199      F3204   1.357       .  S
C3200      C3201   1.409   1_554  A
C3200      F3216   1.357       .  S
C3201      C3202   1.410       .  A
C3202      F3205   1.358       .  S
C3203      C3206   1.402       .  A
C3203      C3210   1.405       .  A
C3206      C3207   1.396       .  A
C3206      F3211   1.358       .  S
C3207      C3208   1.408       .  A
C3207      F3213   1.358       .  S
C3208      C3209   1.408       .  A
C3209      C3210   1.405       .  A
C3209      F3212   1.357       .  S
C3210      F3214   1.358       .  S
