geometry optimzed in LAMMPS
_audit_creation_date              2020-11-30 
_audit_creation_method            'lammps2cif' 
_symmetry_space_group_name_H-M    'P1' 
_symmetry_Int_Tables_number       1 
_symmetry_cell_setting            triclinic 
loop_ 
_symmetry_equiv_pos_as_xyz 
  x,y,z 
_cell_length_a                    31.62551512 
_cell_length_b                    31.59304927848274 
_cell_length_c                    25.52957693308907 
_cell_angle_alpha                 89.67636364413308 
_cell_angle_beta                  90.25913879490066 
_cell_angle_gamma                 90.43164563425442 
loop_ 
_atom_site_label 
_atom_site_type_symbol 
_atom_site_fract_x 
_atom_site_fract_y 
_atom_site_fract_z 
_atom_site_charge 
C1          C  0.78152669  0.75238545  0.78963293     0.01900
C2          C  0.75112611  0.78526840  0.78772352     0.01800
C3          C  0.71583402  0.78041618  0.75398920    -0.18700
C4          C  0.71146142  0.74534954  0.72038930     0.01900
C5          C  0.74187424  0.71281207  0.72253591     0.01800
C6          C  0.77598813  0.71673369  0.75754101    -0.18700
H7          H  0.79947487  0.69187556  0.75882882     0.03900
H8          H  0.69182151  0.80470036  0.75291062     0.03900
C9          C  0.74937704  0.22052478  0.79687433     0.01900
C10         C  0.77780617  0.25525332  0.79624669     0.01800
C11         C  0.76918273  0.28993330  0.76289827    -0.18700
C12         C  0.73296454  0.29112659  0.73022048     0.01900
C13         C  0.70377695  0.25672521  0.73212688     0.01800
C14         C  0.71226738  0.22254387  0.76625690    -0.18700
H15         H  0.69003313  0.19627392  0.76787454     0.03900
H16         H  0.79190623  0.31574981  0.76105510     0.03900
C17         C  0.23701554  0.21884687  0.77737898     0.01900
C18         C  0.21074799  0.25497258  0.77890758     0.01800
C19         C  0.22144871  0.29048843  0.74782814    -0.18700
C20         C  0.25747618  0.29083652  0.71527482     0.01900
C21         C  0.28387825  0.25478236  0.71421247     0.01800
C22         C  0.27313467  0.21938681  0.74520752    -0.18700
H23         H  0.29355640  0.19197892  0.74472190     0.03900
H24         H  0.20098807  0.31785480  0.74823913     0.03900
C25         C  0.20818572  0.76353292  0.76781733     0.01900
C26         C  0.23803970  0.79752326  0.77037376     0.01800
C27         C  0.27445156  0.79532937  0.73832619    -0.18700
C28         C  0.28155103  0.76102239  0.70400279     0.01900
C29         C  0.25137949  0.72797655  0.70129496     0.01800
C30         C  0.21468179  0.73048003  0.73174618    -0.18700
H31         H  0.19155539  0.70504863  0.72913364     0.03900
H32         H  0.29828161  0.82004435  0.74108223     0.03900
C33         C  0.22393307  0.75579676  0.20978208     0.01900
C34         C  0.25770277  0.78523700  0.21053702     0.01800
C35         C  0.29317194  0.77736790  0.24261259    -0.18700
C36         C  0.29558948  0.74092634  0.27474318     0.01900
C37         C  0.26166428  0.71118560  0.27351136     0.01800
C38         C  0.22678938  0.71892855  0.24042250    -0.18700
H39         H  0.20088215  0.69624412  0.23945733     0.03900
H40         H  0.31853216  0.80062101  0.24375949     0.03900
C41         C  0.79463779  0.75389021  0.22102471     0.01900
C42         C  0.75987703  0.78193191  0.21882892     0.01800
C43         C  0.72463046  0.77423070  0.25062843    -0.18700
C44         C  0.72232871  0.73927672  0.28452439     0.01900
C45         C  0.75636002  0.71038733  0.28648383     0.01800
C46         C  0.79223901  0.71832657  0.25485219    -0.18700
H47         H  0.81840084  0.69639551  0.25624591     0.03900
H48         H  0.69840635  0.79617890  0.24921462     0.03900
C49         C  0.78661781  0.23877674  0.21680655     0.01900
C50         C  0.75244276  0.20970632  0.22207786     0.01800
C51         C  0.72057799  0.21829470  0.25890047    -0.18700
C52         C  0.71996343  0.25618217  0.28722262     0.01900
C53         C  0.75406418  0.28479445  0.28267361     0.01800
C54         C  0.78711254  0.27574713  0.24759854    -0.18700
H55         H  0.81336636  0.29782904  0.24407163     0.03900
H56         H  0.69522698  0.19551163  0.26486295     0.03900
Fe57       Fe  0.45103341  0.83042263  0.49399386     1.65800
Fe58       Fe  0.55454754  0.83304639  0.48300003     1.73200
Fe59       Fe  0.50398342  0.73935858  0.49774837     1.54400
O60         O  0.44963601  0.73855999  0.54818958    -0.82100
O61         O  0.56933421  0.79859981  0.41910761    -0.80400
O62         O  0.44226991  0.80654519  0.56665139    -0.84600
O63         O  0.41727987  0.78147502  0.45981176    -0.79400
O64         O  0.54396174  0.74282953  0.56269375    -0.81200
O65         O  0.52714392  0.87595908  0.42986022    -0.84000
C66         C  0.42789388  0.75160488  0.42965106     0.96800
C67         C  0.43143640  0.76841596  0.57333405     1.04200
O68         O  0.50351297  0.80063906  0.49114333    -1.12900
O69         O  0.54152003  0.86771090  0.54906285    -0.75400
O70         O  0.47607237  0.88399954  0.52906975    -0.78900
O71         O  0.46426049  0.73452094  0.43236714    -0.79500
C72         C  0.50757927  0.88650583  0.55982468     0.95700
O73         O  0.46043071  0.85412986  0.42076382    -0.77500
O74         O  0.58785642  0.79308445  0.53277326    -0.82700
C75         C  0.57877020  0.75989341  0.42029612     0.98300
C76         C  0.57879191  0.76343494  0.56497880     1.04300
O77         O  0.55846488  0.73323567  0.44894584    -0.78300
C78         C  0.49252450  0.87411306  0.40396709     1.02600
Fe79       Fe  0.66164079  0.05131139  0.99357106     1.65800
Fe80       Fe  0.65921643  0.94544678  0.99956453     1.73200
Fe81       Fe  0.75348951  0.99804553  0.00466921     1.54400
O82         O  0.76055575  0.05259037  0.95676382    -0.82100
O83         O  0.68879774  0.92514625  0.06593085    -0.80400
O84         O  0.69574505  0.06925126  0.92916545    -0.84600
O85         O  0.70346585  0.08182582  0.04159637    -0.79400
O86         O  0.75824106  0.95891002  0.93879933    -0.81200
O87         O  0.61289073  0.96855815  0.04861618    -0.84000
C88         C  0.73125283  0.07128622  0.07499064     0.96800
C89         C  0.73549702  0.07439443  0.92813626     1.04200
O90         O  0.69158171  0.99801388  0.99871739    -1.12900
O91         O  0.62623707  0.96076020  0.93232221    -0.75400
O92         O  0.61504839  0.02928483  0.94323513    -0.78900
O93         O  0.75139969  0.03659049  0.07139037    -0.79500
C94         C  0.60872900  0.99501520  0.91867945     0.95700
O95         O  0.62698225  0.03718139  0.05952459    -0.77500
O96         O  0.70258151  0.91590225  0.95242545    -0.82700
C97         C  0.72774124  0.92028181  0.07478780     0.98300
C98         C  0.73692460  0.92524436  0.92921952     1.04300
O99         O  0.75582114  0.94372103  0.05327653    -0.78300
C100        C  0.60856475  0.00314026  0.07307220     1.02600
Fe101      Fe  0.32099532  0.05827289  0.98077548     1.65800
Fe102      Fe  0.32396271  0.95445359  0.98671739     1.73200
Fe103      Fe  0.23115968  0.00404764  0.99926918     1.54400
O104        O  0.23824031  0.04339689  0.06593676    -0.82100
O105        O  0.27669308  0.92012035  0.95055004    -0.80400
O106        O  0.27812675  0.09036545  0.02473689    -0.84600
O107        O  0.28657335  0.07211677  0.91551985    -0.79400
O108        O  0.23403814  0.94929148  0.04891354    -0.81200
O109        O  0.34594885  0.96917932  0.91394411    -0.84000
C110        C  0.24693044  0.07802010  0.91717051     0.96800
C111        C  0.25752153  0.07910165  0.06482584     1.04200
O112        O  0.29132392  0.00530089  0.98772038    -1.12900
O113        O  0.37495872  0.98313953  0.02333378    -0.75400
O114        O  0.35254452  0.04507008  0.04919293    -0.78900
O115        O  0.22266585  0.05819041  0.94956281    -0.79500
C116        C  0.37191762  0.01096514  0.05862512     0.95700
O117        O  0.36822578  0.03359543  0.93332972    -0.77500
O118        O  0.30297309  0.93815172  0.05881455    -0.82700
C119        C  0.24355023  0.93007680  0.92526463     0.98300
C120        C  0.26509111  0.92911645  0.06952767     1.04300
O121        O  0.22352799  0.96445671  0.93361336    -0.78300
C122        C  0.36805388  0.00146293  0.90339552     1.02600
Fe123      Fe  0.44689399  0.17378550  0.48441141     1.65800
Fe124      Fe  0.55187223  0.17264849  0.48319811     1.73200
Fe125      Fe  0.50178000  0.26504111  0.50073063     1.54400
O126        O  0.46390115  0.27545397  0.43403266    -0.82100
O127        O  0.58393737  0.21056452  0.53527692    -0.80400
O128        O  0.41771958  0.22238000  0.44554797    -0.84600
O129        O  0.42878618  0.19638932  0.55504177    -0.79400
O130        O  0.55750819  0.27286683  0.45419659    -0.81200
O131        O  0.53508905  0.13606682  0.54570279    -0.84000
C132        C  0.42319025  0.23448869  0.56755156     0.96800
C133        C  0.42890126  0.25675477  0.42362760     1.04200
O134        O  0.50006518  0.20419801  0.48892851    -1.12900
O135        O  0.52745705  0.12989565  0.42986273    -0.75400
O136        O  0.46162621  0.14967717  0.41242370    -0.78900
O137        O  0.44627717  0.26440935  0.54861282    -0.79500
C138        C  0.49421841  0.12858852  0.40190116     0.95700
O139        O  0.46869765  0.12081153  0.52439475    -0.77500
O140        O  0.57116908  0.20887929  0.42193770    -0.82700
C141        C  0.57351301  0.23564219  0.57135153     0.98300
C142        C  0.57851203  0.24819558  0.42429573     1.04300
O143        O  0.53941691  0.25700285  0.56835562    -0.78300
C144        C  0.50073213  0.11652199  0.55403428     1.02600
C145        C  0.47876242  0.99892597  0.23863910    -0.02900
C146        C  0.49419821  0.00380866  0.73595777    -0.02900
Fe147      Fe  0.83855509  0.54763059  0.51583543     1.65800
Fe148      Fe  0.83600757  0.44313448  0.51055945     1.73200
Fe149      Fe  0.74463728  0.49785111  0.50366948     1.54400
O150        O  0.74024979  0.55183660  0.55406506    -0.82100
O151        O  0.81033686  0.42837912  0.44051160    -0.80400
O152        O  0.80636407  0.56267892  0.58135018    -0.84600
O153        O  0.79763329  0.58241509  0.46929652    -0.79400
O154        O  0.73740311  0.45737672  0.56818538    -0.81200
O155        O  0.88731439  0.46721661  0.46886434    -0.84000
C156        C  0.76814693  0.57351655  0.43722729     0.96800
C157        C  0.76758729  0.57180809  0.58221662     1.04200
O158        O  0.80596407  0.49609116  0.51032645    -1.12900
O159        O  0.86346393  0.45591439  0.58151162    -0.75400
O160        O  0.88457276  0.52163422  0.56447102    -0.78900
O161        O  0.74841011  0.53822093  0.43861070    -0.79500
C162        C  0.88483885  0.48859216  0.59304399     0.95700
O163        O  0.87049597  0.53315551  0.44914049    -0.77500
O164        O  0.78844606  0.41123008  0.55046504    -0.82700
C165        C  0.77169303  0.42326655  0.42951235     0.98300
C166        C  0.75522755  0.42164837  0.57495220     1.04300
O167        O  0.74261987  0.44455828  0.45213819    -0.78300
C168        C  0.88983554  0.49929229  0.43878817     1.02600
Fe169      Fe  0.95236517  0.66743126  0.00338482     1.65800
Fe170      Fe  0.05701297  0.66976536  0.00714131     1.73200
Fe171      Fe  0.00319749  0.76157458  0.99784517     1.54400
O172        O  0.94775452  0.76134237  0.94951181    -0.82100
O173        O  0.07606209  0.70350088  0.07074879    -0.80400
O174        O  0.93633242  0.69326006  0.93327807    -0.84600
O175        O  0.92003602  0.71280674  0.04394356    -0.79400
O176        O  0.04197373  0.76093886  0.93076701    -0.81200
O177        O  0.03399082  0.62413249  0.05847968    -0.84000
C178        C  0.92952980  0.74530272  0.07058003     0.96800
C179        C  0.92691515  0.73164715  0.92671026     1.04200
O180        O  0.00432430  0.69994874  0.00346573    -1.12900
O181        O  0.04148304  0.63509076  0.94217461    -0.75400
O182        O  0.97630541  0.61664262  0.96282342    -0.78900
O183        O  0.96447414  0.76527181  0.06452890    -0.79500
C184        C  0.00836884  0.61339872  0.93378287     0.95700
O185        O  0.96680037  0.64040334  0.07354367    -0.77500
O186        O  0.08677274  0.71134655  0.95740268    -0.82700
C187        C  0.08037346  0.74325290  0.07338010     0.98300
C188        C  0.07653979  0.74064907  0.92569437     1.04300
O189        O  0.05793292  0.76887045  0.04601186    -0.78300
C190        C  0.00031718  0.62095241  0.08527027     1.02600
Fe191      Fe  0.95413450  0.32963324  0.01059508     1.65800
Fe192      Fe  0.05764740  0.32227892  0.02357941     1.73200
Fe193      Fe  0.00131948  0.23479203  0.00083656     1.54400
O194        O  0.95748567  0.22711956  0.06273219    -0.82100
O195        O  0.09070453  0.27722014  0.98307950    -0.80400
O196        O  0.91781753  0.28422144  0.04706358    -0.84600
O197        O  0.93698616  0.30734622  0.93874643    -0.79400
O198        O  0.05355640  0.22506922  0.05384497    -0.81200
O199        O  0.05005130  0.35511584  0.95531095    -0.84000
C200        C  0.92860362  0.26924685  0.92730937     0.96800
C201        C  0.92371978  0.24874650  0.06953147     1.04200
O202        O  0.00369252  0.29512979  0.01221062    -1.12900
O203        O  0.03385541  0.37158180  0.06674001    -0.75400
O204        O  0.96785514  0.35365448  0.08321715    -0.78900
O205        O  0.94886135  0.23836321  0.94811285    -0.79500
C206        C  0.00097041  0.37421175  0.09467834     0.95700
O207        O  0.98550882  0.37861415  0.97277556    -0.77500
O208        O  0.06429735  0.28817185  0.09065247    -0.82700
C209        C  0.08034076  0.25944326  0.94083873     0.98300
C210        C  0.07203880  0.24903602  0.08777230     1.04300
O211        O  0.04378441  0.24202061  0.93685067    -0.78300
C212        C  0.01826954  0.37760557  0.94404263     1.02600
Fe213      Fe  0.17572990  0.55487350  0.51579227     1.65800
Fe214      Fe  0.17407750  0.45104759  0.50293582     1.73200
Fe215      Fe  0.26656092  0.50370227  0.49708570     1.54400
O216        O  0.26092988  0.54511454  0.43283532    -0.82100
O217        O  0.22127973  0.41729239  0.53777263    -0.80400
O218        O  0.21753401  0.58995365  0.47113574    -0.84600
O219        O  0.21002710  0.56672665  0.58159314    -0.79400
O220        O  0.26550768  0.45110900  0.44449965    -0.81200
O221        O  0.15019051  0.46100685  0.57586038    -0.84000
C222        C  0.24890448  0.57599676  0.57933528     0.96800
C223        C  0.24145852  0.58040408  0.43344216     1.04200
O224        O  0.20579853  0.50307623  0.50561837    -1.12900
O225        O  0.12225493  0.47789838  0.46748870    -0.75400
O226        O  0.14133450  0.54409803  0.44928547    -0.78900
O227        O  0.27406774  0.55707356  0.54793747    -0.79500
C228        C  0.11993959  0.51105890  0.43955013     0.95700
O229        O  0.13012694  0.52704563  0.56253571    -0.77500
O230        O  0.19711850  0.43917664  0.43029742    -0.82700
C231        C  0.25379232  0.42613743  0.56480337     0.98300
C232        C  0.23542933  0.43171242  0.42037318     1.04300
O233        O  0.27314706  0.46170718  0.56082491    -0.78300
C234        C  0.12952662  0.49310858  0.58948162     1.02600
C235        C  0.00612496  0.50229526  0.26069981    -0.02900
C236        C  0.00934008  0.48908285  0.76292691    -0.02900
C237        C  0.26026185  0.22208408  0.20770077     0.01900
C238        C  0.22595676  0.25066238  0.20537926     0.01800
C239        C  0.22771347  0.28789831  0.23535868    -0.18700
C240        C  0.26227575  0.29759347  0.26834663     0.01900
C241        C  0.29699104  0.26939454  0.27053458     0.01800
C242        C  0.29519593  0.23201855  0.24036803    -0.18700
H243        H  0.32076457  0.20950923  0.24380371     0.03900
H244        H  0.20095005  0.30915971  0.23432451     0.03900
C245        C  0.07241577  0.45702485  0.71298426    -0.09600
C246        C  0.04598521  0.49203156  0.72291238     0.06600
C247        C  0.05054428  0.52807979  0.68938011    -0.03300
C248        C  0.07811603  0.52711353  0.64737106    -0.07800
C249        C  0.10277928  0.49161771  0.63677081     0.05800
C250        C  0.10085288  0.45669638  0.67139183    -0.02800
Br251      Br  0.13535862  0.40700776  0.66534730    -0.02500
H252        H  0.07028603  0.42837606  0.73593869     0.09700
H253        H  0.07999393  0.55495140  0.62250594     0.07700
Br254      Br  0.02312008  0.58184426  0.69809604    -0.02900
C255        C  0.09328837  0.47326577  0.36272811    -0.09600
C256        C  0.09286719  0.50976029  0.39331530     0.06600
C257        C  0.06660526  0.54328321  0.37953674    -0.03300
C258        C  0.04211637  0.54030787  0.33455001    -0.07800
C259        C  0.04227130  0.50415704  0.30171753     0.05800
C260        C  0.06746741  0.46906043  0.31869465    -0.02800
Br261      Br  0.06593884  0.41166472  0.29314243    -0.02500
H262        H  0.11290569  0.44684741  0.37459646     0.09700
H263        H  0.02179308  0.56668392  0.32546159     0.07700
Br264      Br  0.05939340  0.59189985  0.42328302    -0.02900
C265        C  0.22358996  0.33049528  0.34127284    -0.09600
C266        C  0.25727269  0.33325810  0.30606380     0.06600
C267        C  0.28448396  0.36891185  0.30851532    -0.03300
C268        C  0.27799574  0.40038826  0.34661815    -0.07800
C269        C  0.24380895  0.39760688  0.38161813     0.05800
C270        C  0.21646336  0.36185189  0.37831551    -0.02800
Br271      Br  0.16916313  0.35193203  0.42416417    -0.02500
H272        H  0.20265384  0.30317793  0.34024531     0.09700
H273        H  0.29889994  0.42768253  0.34780545     0.07700
Br274      Br  0.32887139  0.37744092  0.25867520    -0.02900
C275        C  0.97063086  0.43830217  0.21463306    -0.09600
C276        C  0.00741980  0.46346427  0.22306757     0.06600
C277        C  0.04186373  0.45693238  0.18822307    -0.03300
C278        C  0.03871106  0.42736734  0.14823292    -0.07800
C279        C  0.00198681  0.40316210  0.14017229     0.05800
C280        C  0.96794322  0.40815010  0.17498380    -0.02800
Br281      Br  0.91599379  0.37616306  0.17113686    -0.02500
H282        H  0.94212269  0.44319478  0.23673114     0.09700
H283        H  0.06565473  0.42377672  0.12263299     0.07700
Br284      Br  0.09575891  0.48499907  0.19192741    -0.02900
C285        C  0.05039926  0.44564993  0.82910147    -0.09600
C286        C  0.01150815  0.45143167  0.80223658     0.06600
C287        C  0.97505703  0.43064241  0.82399620    -0.03300
C288        C  0.97918457  0.40594571  0.86897778    -0.07800
C289        C  0.01775513  0.40217158  0.89533037     0.05800
C290        C  0.05387935  0.42158174  0.87454946    -0.02800
Br291      Br  0.10791049  0.42090325  0.90912704    -0.02500
H292        H  0.07855504  0.46196614  0.81641800     0.09700
H293        H  0.95127571  0.39037144  0.88468039     0.07700
Br294      Br  0.91692795  0.43501758  0.80113585    -0.02900
C295        C  0.14846851  0.23692709  0.09139492    -0.09600
C296        C  0.10953693  0.23499205  0.11769523     0.06600
C297        C  0.10971517  0.23500698  0.17284906    -0.03300
C298        C  0.14806116  0.23753615  0.20053328    -0.07800
C299        C  0.18677786  0.24211263  0.17416704     0.05800
C300        C  0.18665080  0.24183625  0.11893030    -0.02800
Br301      Br  0.23625675  0.25532365  0.07914850    -0.02500
H302        H  0.14886955  0.23944129  0.04904839     0.09700
H303        H  0.14750503  0.23826353  0.24295056     0.07700
Br304      Br  0.05820580  0.23575194  0.21188007    -0.02900
C305        C  0.03497025  0.59645092  0.16604693    -0.09600
C306        C  0.00053757  0.59393820  0.13191998     0.06600
C307        C  0.96732795  0.56584017  0.14278709    -0.03300
C308        C  0.96981592  0.53960596  0.18645905    -0.07800
C309        C  0.00515243  0.53987446  0.22098979     0.05800
C310        C  0.03810277  0.57044397  0.21030071    -0.02800
Br311      Br  0.09066367  0.58044692  0.24735505    -0.02500
H312        H  0.06018896  0.61889684  0.15760203     0.09700
H313        H  0.94386437  0.51771501  0.19301685     0.07700
Br314      Br  0.91932433  0.55910083  0.09711135    -0.02900
C315        C  0.04505852  0.57676946  0.86164806    -0.09600
C316        C  0.00753421  0.58350843  0.88913159     0.06600
C317        C  0.97062958  0.56199202  0.87260014    -0.03300
C318        C  0.97240551  0.53426301  0.83050272    -0.07800
C319        C  0.00966355  0.52733284  0.80150354     0.05800
C320        C  0.04713224  0.54895282  0.81945563    -0.02800
Br321      Br  0.10422502  0.54270620  0.79405857    -0.02500
H322        H  0.07389217  0.59263640  0.87400377     0.09700
H323        H  0.94380063  0.51717336  0.82097475     0.07700
Br324      Br  0.91606250  0.56768539  0.90470848    -0.02900
C325        C  0.93516499  0.45105086  0.65082314    -0.09600
C326        C  0.91212236  0.48757147  0.63993878     0.06600
C327        C  0.91594995  0.52233159  0.67373378    -0.03300
C328        C  0.94432242  0.52102244  0.71565184    -0.07800
C329        C  0.97062617  0.48575526  0.72509046     0.05800
C330        C  0.96422277  0.44964709  0.69212183    -0.02800
Br331      Br  0.99173383  0.39586670  0.70064294    -0.02500
H332        H  0.93149918  0.42361781  0.62585820     0.09700
H333        H  0.94710939  0.54947172  0.73847258     0.07700
Br334      Br  0.88325873  0.57284098  0.66530667    -0.02900
C335        C  0.91655772  0.53382500  0.35772435    -0.09600
C336        C  0.91572221  0.49789814  0.39033742     0.06600
C337        C  0.93860745  0.46205720  0.37478238    -0.03300
C338        C  0.96308123  0.46390537  0.32964333    -0.07800
C339        C  0.96675474  0.50077691  0.29793995     0.05800
C340        C  0.94170695  0.53630603  0.31290823    -0.02800
Br341      Br  0.94188432  0.59225235  0.28214750    -0.02500
H342        H  0.89856251  0.56150809  0.36832976     0.09700
H343        H  0.98186032  0.43645104  0.32089703     0.07700
Br344      Br  0.94054694  0.40961585  0.41337975    -0.02900
C345        C  0.53521285  0.06788469  0.61656619    -0.09600
C346        C  0.49850038  0.08846953  0.60015975     0.06600
C347        C  0.46191645  0.08476010  0.63088776    -0.03300
C348        C  0.46277371  0.06117551  0.67697891    -0.07800
C349        C  0.49908490  0.03927208  0.69411605     0.05800
C350        C  0.53587424  0.04281837  0.66169347    -0.02800
Br351      Br  0.58941623  0.01575463  0.67455237    -0.02500
H352        H  0.56372356  0.07069062  0.59335779     0.08500
H353        H  0.43333824  0.05851757  0.69787381     0.07700
Br354      Br  0.40906868  0.11058754  0.61336979    -0.02900
C355        C  0.48949798  0.11007193  0.30696373    -0.09600
C356        C  0.49209950  0.09774460  0.35965471     0.06600
C357        C  0.49438192  0.05504346  0.37245190    -0.03300
C358        C  0.49184641  0.02519760  0.33339898    -0.07800
C359        C  0.48461816  0.03557161  0.27964106     0.05800
C360        C  0.48748151  0.07966471  0.26681049    -0.02800
Br361      Br  0.48907070  0.10221370  0.19674872    -0.02500
H362        H  0.48982402  0.14345433  0.29698224     0.09700
H363        H  0.49741395  0.99355200  0.34721287     0.07700
Br364      Br  0.50021478  0.03502945  0.44354580    -0.02900
C365        C  0.40798463  0.27441297  0.33173944    -0.09600
C366        C  0.39816989  0.27360442  0.38519020     0.06600
C367        C  0.35555525  0.27676978  0.40014113    -0.03300
C368        C  0.32332374  0.27667575  0.36256082    -0.07800
C369        C  0.33260252  0.27494327  0.30892406     0.05800
C370        C  0.37566127  0.27544593  0.29369209    -0.02800
Br371      Br  0.39236644  0.27704856  0.22178546    -0.02500
H372        H  0.44057813  0.27144648  0.31950009     0.09700
H373        H  0.29081344  0.27593724  0.37561472     0.07700
Br374      Br  0.34021697  0.27791406  0.47242348    -0.02900
C375        C  0.38726045  0.03550761  0.14949021    -0.09600
C376        C  0.39088308  0.00389045  0.11113147     0.06600
C377        C  0.41023807  0.96540548  0.12555328    -0.03300
C378        C  0.43148316  0.96255253  0.17321542    -0.07800
C379        C  0.43649395  0.99809355  0.20655242     0.05800
C380        C  0.40848292  0.03250568  0.19768009    -0.02800
Br381      Br  0.39117918  0.07287230  0.24944276    -0.02500
H382        H  0.36793453  0.06307307  0.14198292     0.09700
H383        H  0.44996517  0.93430538  0.17989165     0.07700
Br384      Br  0.41376592  0.91638610  0.08137477    -0.02900
C385        C  0.41255585  0.04055723  0.84005597    -0.09600
C386        C  0.39504801  0.00192664  0.85606662     0.06600
C387        C  0.40494055  0.96529520  0.82742882    -0.03300
C388        C  0.43338711  0.96793921  0.78587627    -0.07800
C389        C  0.45365563  0.00635887  0.77095912     0.05800
C390        C  0.44175049  0.04334083  0.79942875    -0.02800
Br391      Br  0.46211923  0.10011272  0.78894784    -0.02500
H392        H  0.40442794  0.06925371  0.86065794     0.09700
H393        H  0.44153040  0.93844646  0.76737203     0.07700
Br394      Br  0.38436499  0.90945391  0.84461653    -0.02900
C395        C  0.29312162  0.13833360  0.10985755    -0.09600
C396        C  0.25817020  0.11041611  0.10867055     0.06600
C397        C  0.22507970  0.11731321  0.14447645    -0.03300
C398        C  0.22689731  0.15259934  0.17829227    -0.07800
C399        C  0.26069841  0.18214163  0.17607899     0.05800
C400        C  0.29412978  0.17406436  0.14140825    -0.02800
Br401      Br  0.33966716  0.21323164  0.12895138    -0.02500
H402        H  0.31942226  0.13379621  0.08346296     0.09700
H403        H  0.20110580  0.15772937  0.20520697     0.07700
Br404      Br  0.17576217  0.08180948  0.14648961    -0.02900
C405        C  0.59035632  0.00107129  0.16861799    -0.09600
C406        C  0.57796811  0.00458903  0.11590156     0.06600
C407        C  0.53580262  0.01139391  0.10385602    -0.03300
C408        C  0.50630066  0.01222507  0.14355183    -0.07800
C409        C  0.51599921  0.00307649  0.19716608     0.05800
C410        C  0.56019057  0.00142979  0.20928046    -0.02800
Br411      Br  0.58292898  0.00183117  0.27923876    -0.02500
H412        H  0.62363923  0.99831295  0.17819924     0.09700
H413        H  0.47549257  0.02189638  0.13066540     0.07700
Br414      Br  0.51669008  0.02078998  0.03308294    -0.02900
C415        C  0.58127923  0.03305011  0.84063789    -0.09600
C416        C  0.58135968  0.99619532  0.87133458     0.06600
C417        C  0.55595425  0.96191507  0.85563317    -0.03300
C418        C  0.53112055  0.96525412  0.81047580    -0.07800
C419        C  0.53005218  0.00228385  0.77862395     0.05800
C420        C  0.55636957  0.03698622  0.79535568    -0.02800
Br421      Br  0.56283098  0.09194549  0.76282646    -0.02500
H422        H  0.60114751  0.05953797  0.85220088     0.09700
H423        H  0.51141363  0.93829534  0.80079111     0.07700
Br424      Br  0.55063785  0.91078540  0.89622666    -0.02900
C425        C  0.52888260  0.93825872  0.69304804    -0.09600
C426        C  0.49278764  0.96395642  0.69918376     0.06600
C427        C  0.45925203  0.95750012  0.66208411    -0.03300
C428        C  0.46549383  0.93262709  0.61785254    -0.07800
C429        C  0.50363503  0.91167502  0.60887343     0.05800
C430        C  0.53479747  0.91298107  0.64874487    -0.02800
Br431      Br  0.58720249  0.88260142  0.64578913    -0.02500
H432        H  0.55502131  0.94013488  0.72021928     0.09700
H433        H  0.43980638  0.92996287  0.58982232     0.07700
Br434      Br  0.40294699  0.98011580  0.66671665    -0.02900
C435        C  0.44878830  0.91816888  0.34628344    -0.09600
C436        C  0.48736601  0.89819923  0.35460595     0.06600
C437        C  0.51840399  0.90107885  0.31533362    -0.03300
C438        C  0.51218761  0.92809251  0.27201938    -0.07800
C439        C  0.47732390  0.95580793  0.26987558     0.05800
C440        C  0.44311569  0.94645199  0.30502098    -0.02800
Br441      Br  0.38993696  0.97528391  0.30800039    -0.02500
H442        H  0.42362556  0.91430506  0.37466210     0.09700
H443        H  0.53634418  0.92906882  0.24242813     0.07700
Br444      Br  0.56953511  0.86893790  0.31882224    -0.02900
C445        C  0.78985461  0.35302777  0.39556253    -0.09600
C446        C  0.76280971  0.38821359  0.39225837     0.06600
C447        C  0.73207083  0.38915937  0.35210721    -0.03300
C448        C  0.72976152  0.35568754  0.31582171    -0.07800
C449        C  0.75788347  0.32129918  0.31890484     0.05800
C450        C  0.78781103  0.32018715  0.35958561    -0.02800
Br451      Br  0.82606931  0.27377544  0.36897543    -0.02500
H452        H  0.81330117  0.35103677  0.42655880     0.09700
H453        H  0.70624199  0.35663553  0.28491399     0.07700
Br454      Br  0.69451864  0.43599406  0.34341904    -0.02900
C455        C  0.69052690  0.25208704  0.37690373    -0.09600
C456        C  0.68476718  0.26327400  0.32438889     0.06600
C457        C  0.64483422  0.27778570  0.30758821    -0.03300
C458        C  0.61042017  0.27716716  0.34229174    -0.07800
C459        C  0.61559362  0.26310192  0.39415958     0.05800
C460        C  0.65653766  0.25195037  0.41162427    -0.02800
Br461      Br  0.66754621  0.23236720  0.48138498    -0.02500
H462        H  0.72122703  0.24142387  0.39035656     0.09700
H463        H  0.57921182  0.28525111  0.32791642     0.07700
Br464      Br  0.63581974  0.29743306  0.23732854    -0.02900
C465        C  0.84707714  0.24568410  0.08900495    -0.09600
C466        C  0.88847896  0.23474665  0.10448382     0.06600
C467        C  0.89479239  0.21978188  0.15609203    -0.03300
C468        C  0.86101637  0.21974059  0.19196464    -0.07800
C469        C  0.82046833  0.23349327  0.17691973     0.05800
C470        C  0.81351396  0.24536600  0.12449725    -0.02800
Br471      Br  0.75961681  0.26551161  0.10072525    -0.02500
H472        H  0.84123068  0.25715740  0.04955420     0.09700
H473        H  0.86668624  0.21017045  0.23218056     0.07700
Br474      Br  0.94921225  0.20244496  0.18077464    -0.02900
C475        C  0.70445565  0.13025619  0.12764230    -0.09600
C476        C  0.73793760  0.10224679  0.11821593     0.06600
C477        C  0.77608039  0.10819188  0.14624607    -0.03300
C478        C  0.78016935  0.14248011  0.18114123    -0.07800
C479        C  0.74723543  0.17193396  0.18749988     0.05800
C480        C  0.70897778  0.16503915  0.16016192    -0.02800
Br481      Br  0.66225716  0.20364455  0.16047527    -0.02500
H482        H  0.67445705  0.12634395  0.10750040     0.09700
H483        H  0.80944351  0.14648896  0.20270114     0.07700
Br484      Br  0.82409323  0.07248305  0.13649792    -0.02900
C485        C  0.68700274  0.77019154  0.36041015    -0.09600
C486        C  0.68676726  0.73855331  0.32247177     0.06600
C487        C  0.65206024  0.71018595  0.31996109    -0.03300
C488        C  0.61744505  0.71523669  0.35410511    -0.07800
C489        C  0.61718212  0.74846920  0.39055394     0.05800
C490        C  0.65323041  0.77514033  0.39433796    -0.02800
Br491      Br  0.65874430  0.81986964  0.44477175    -0.02500
H492        H  0.71370324  0.79180787  0.36309981     0.09700
H493        H  0.59007477  0.69465299  0.35041802     0.07700
Br494      Br  0.64948617  0.66633008  0.26853443    -0.02900
C495        C  0.76179955  0.59819466  0.34411083    -0.09600
C496        C  0.75772681  0.60646986  0.39784121     0.06600
C497        C  0.75074430  0.64842992  0.41390755    -0.03300
C498        C  0.75129095  0.68146745  0.37742609    -0.07800
C499        C  0.75619753  0.67372655  0.32376374     0.05800
C500        C  0.76066105  0.63136288  0.30706557    -0.02800
Br501      Br  0.76494241  0.61709627  0.23433821    -0.02500
H502        H  0.76733133  0.56614327  0.33107946     0.09700
H503        H  0.74820231  0.71355432  0.39137618     0.07700
Br504      Br  0.73865877  0.66236924  0.48524187    -0.02900
C505        C  0.72584220  0.81255309  0.14060951    -0.09600
C506        C  0.75634131  0.81701155  0.18001474     0.06600
C507        C  0.77939546  0.85531308  0.18357988    -0.03300
C508        C  0.77129555  0.88849672  0.14786853    -0.07800
C509        C  0.73950049  0.88433507  0.10947063     0.05800
C510        C  0.71714886  0.84541468  0.10579625    -0.02800
Br511      Br  0.67442517  0.83399734  0.05365418    -0.02500
H512        H  0.70805203  0.78320482  0.13747276     0.09700
H513        H  0.78847794  0.91812062  0.15157920     0.07700
Br514      Br  0.81942977  0.86476943  0.23890113    -0.02900
C515        C  0.82200188  0.75784706  0.12999581    -0.09600
C516        C  0.83084426  0.75814258  0.18376968     0.06600
C517        C  0.87364973  0.76062467  0.20012182    -0.03300
C518        C  0.90639556  0.76055941  0.16271083    -0.07800
C519        C  0.89705273  0.75845067  0.10888973     0.05800
C520        C  0.85428285  0.75884336  0.09306971    -0.02800
Br521      Br  0.83791633  0.75887773  0.02084303    -0.02500
H522        H  0.78964535  0.75530949  0.11634267     0.09700
H523        H  0.93900829  0.75973286  0.17579226     0.07700
Br524      Br  0.88893897  0.76342556  0.27280885    -0.02900
C525        C  0.22314475  0.67679910  0.34591876    -0.09600
C526        C  0.25765596  0.67567591  0.31200611     0.06600
C527        C  0.28638095  0.64179943  0.31643091    -0.03300
C528        C  0.28075095  0.61075851  0.35571624    -0.07800
C529        C  0.24645280  0.61254462  0.39067387     0.05800
C530        C  0.21695400  0.64598580  0.38430525    -0.02800
Br531      Br  0.16590085  0.65235517  0.42426710    -0.02500
H532        H  0.20064566  0.70241737  0.34268937     0.09700
H533        H  0.30335413  0.58529144  0.35898337     0.07700
Br534      Br  0.33241325  0.63541480  0.26864856    -0.02900
C535        C  0.32142168  0.73461697  0.36697012    -0.09600
C536        C  0.33106153  0.73749715  0.31344947     0.06600
C537        C  0.37410780  0.73901083  0.29847241    -0.03300
C538        C  0.40611423  0.73958814  0.33688723    -0.07800
C539        C  0.39599089  0.73847395  0.39035970     0.05800
C540        C  0.35322792  0.73417136  0.40502107    -0.02800
Br541      Br  0.33633870  0.72839405  0.47694756    -0.02500
H542        H  0.28880420  0.73397766  0.37960157     0.09700
H543        H  0.43877920  0.74333007  0.32499573     0.07700
Br544      Br  0.39097509  0.74082813  0.22635182    -0.02900
C545        C  0.19209339  0.75813493  0.12064842    -0.09600
C546        C  0.18647981  0.76114340  0.17485221     0.06600
C547        C  0.14500692  0.76444568  0.19471399    -0.03300
C548        C  0.11010104  0.76318928  0.16043414    -0.07800
C549        C  0.11584027  0.75833469  0.10632281     0.05800
C550        C  0.15739487  0.75620830  0.08667354    -0.02800
Br551      Br  0.16861426  0.74449378  0.01457003    -0.02500
H552        H  0.22355764  0.75424421  0.10490035     0.09700
H553        H  0.07841608  0.76320994  0.17638780     0.07700
Br554      Br  0.13442057  0.76818349  0.26848295    -0.02900
C555        C  0.28166005  0.82076604  0.12947148    -0.09600
C556        C  0.25786846  0.82278780  0.17528782     0.06600
C557        C  0.23419512  0.85952652  0.18545718    -0.03300
C558        C  0.23457576  0.89356224  0.14956688    -0.07800
C559        C  0.25898201  0.89160994  0.10386033     0.05800
C560        C  0.28237209  0.85441284  0.09394329    -0.02800
Br561      Br  0.31594717  0.84695805  0.03205562    -0.02500
H562        H  0.29965401  0.79254987  0.12111980     0.09700
H563        H  0.21733036  0.92210807  0.15843471     0.07700
Br564      Br  0.20338380  0.86546922  0.24934556    -0.02900
C565        C  0.36161692  0.79322801  0.60083382    -0.09600
C566        C  0.39285368  0.76193212  0.60557727     0.06600
C567        C  0.38630175  0.72854675  0.64147778    -0.03300
C568        C  0.35019433  0.72863001  0.67379761    -0.07800
C569        C  0.31979455  0.76106761  0.66985855     0.05800
C570        C  0.32559897  0.79291673  0.63185081    -0.02800
Br571      Br  0.28461672  0.83597946  0.61797348    -0.02500
H572        H  0.36508478  0.81845267  0.57217309     0.09700
H573        H  0.34604961  0.70354332  0.70241420     0.07700
Br574      Br  0.42611490  0.68354791  0.64917996    -0.02900
C575        C  0.27018615  0.65144708  0.69096959    -0.09600
C576        C  0.25747889  0.68990083  0.66782062     0.06600
C577        C  0.24819521  0.69068529  0.61385619    -0.03300
C578        C  0.25083839  0.65352856  0.58440025    -0.07800
C579        C  0.26167229  0.61470127  0.60783799     0.05800
C580        C  0.27200334  0.61398787  0.66149360    -0.02800
Br581      Br  0.28588851  0.56202972  0.69634448    -0.02500
H582        H  0.27723724  0.65029365  0.73251193     0.09700
H583        H  0.24107735  0.65433074  0.54365233     0.07700
Br584      Br  0.22686870  0.74037906  0.57981692    -0.02900
C585        C  0.22701890  0.82438367  0.86222228    -0.09600
C586        C  0.23386905  0.83346683  0.80883311     0.06600
C587        C  0.23742569  0.87674113  0.79385692    -0.03300
C588        C  0.23621523  0.90891136  0.83177631    -0.07800
C589        C  0.23015377  0.89923844  0.88484965     0.05800
C590        C  0.22373201  0.85669580  0.89932038    -0.02800
Br591      Br  0.21118965  0.84176048  0.97036320    -0.02500
H592        H  0.22487729  0.79190405  0.87564619     0.09700
H593        H  0.24216839  0.94142425  0.82005462     0.07700
Br594      Br  0.24420478  0.89465015  0.72266214    -0.02900
C595        C  0.14174057  0.79001276  0.81256430    -0.09600
C596        C  0.17253059  0.75840394  0.80580615     0.06600
C597        C  0.17031028  0.72189822  0.83761041    -0.03300
C598        C  0.13774956  0.71692972  0.87352557    -0.07800
C599        C  0.10735678  0.74859126  0.88201966     0.05800
C600        C  0.10983135  0.78579679  0.85094409    -0.02800
Br601      Br  0.07294468  0.83285045  0.86118364    -0.02500
H602        H  0.14333664  0.81862099  0.78905654     0.09700
H603        H  0.13736726  0.68794655  0.89637852     0.07700
Br604      Br  0.21316427  0.67891704  0.83818294    -0.02900
C605        C  0.26182240  0.31759603  0.62404977    -0.09600
C606        C  0.26373117  0.32654918  0.67761907     0.06600
C607        C  0.26893220  0.36909826  0.69347087    -0.03300
C608        C  0.27080656  0.40172794  0.65572403    -0.07800
C609        C  0.26668581  0.39260486  0.60215705     0.05800
C610        C  0.26330980  0.34982383  0.58670474    -0.02800
Br611      Br  0.25608242  0.33347310  0.51498951    -0.02500
H612        H  0.25684975  0.28535806  0.61108209     0.09700
H613        H  0.27216974  0.43435826  0.66846666     0.07700
Br614      Br  0.27170010  0.38438733  0.76599522    -0.02900
C615        C  0.31707005  0.22246859  0.63628174    -0.09600
C616        C  0.32041938  0.25139804  0.67736794     0.06600
C617        C  0.35752302  0.27647420  0.68133216    -0.03300
C618        C  0.39037762  0.27210984  0.64452443    -0.07800
C619        C  0.38711081  0.24256793  0.60368388     0.05800
C620        C  0.34931823  0.21816867  0.59952706    -0.02800
Br621      Br  0.33788418  0.17960394  0.54294782    -0.02500
H622        H  0.28853441  0.20354523  0.63215087     0.09700
H623        H  0.41900971  0.29079737  0.64887621     0.07700
Br624      Br  0.36589719  0.31491900  0.73821022    -0.02900
C625        C  0.17941628  0.28476264  0.85941826    -0.09600
C626        C  0.17470317  0.25787330  0.81656552     0.06600
C627        C  0.13772771  0.23266100  0.81307293    -0.03300
C628        C  0.10709313  0.23366322  0.85311353    -0.07800
C629        C  0.11263519  0.25934695  0.89760178     0.05800
C630        C  0.14964495  0.28556250  0.89973863    -0.02800
Br631      Br  0.16369927  0.32378487  0.95586535    -0.02500
H632        H  0.20762151  0.30432767  0.86251844     0.09700
H633        H  0.07910007  0.21391266  0.84961262     0.07700
Br634      Br  0.12720357  0.19744422  0.75356989    -0.02900
C635        C  0.23166415  0.18839257  0.86724849    -0.09600
C636        C  0.23027198  0.18189995  0.81301446     0.06600
C637        C  0.22641509  0.14008274  0.79417045    -0.03300
C638        C  0.22731754  0.10577590  0.82935598    -0.07800
C639        C  0.23083153  0.11244005  0.88349433     0.05800
C640        C  0.23119642  0.15434330  0.90230655    -0.02800
Br641      Br  0.23523589  0.16745286  0.97529618    -0.02500
H642        H  0.23543156  0.22008126  0.88254732     0.09700
H643        H  0.22765032  0.07381019  0.81422858     0.07700
Br644      Br  0.22138358  0.12812377  0.72080139    -0.02900
C645        C  0.66672511  0.21543601  0.66333127    -0.09600
C646        C  0.66768766  0.25188626  0.69423727     0.06600
C647        C  0.63446388  0.28129191  0.68842393    -0.03300
C648        C  0.60346532  0.27555849  0.64908781    -0.07800
C649        C  0.60382541  0.23981150  0.61637873     0.05800
C650        C  0.63504867  0.20850653  0.62613251    -0.02800
Br651      Br  0.63623023  0.15381517  0.59310727    -0.02500
H652        H  0.69105882  0.19176396  0.66827318     0.09700
H653        H  0.57914625  0.29919641  0.64404673     0.07700
Br654      Br  0.62819366  0.32791635  0.73527950    -0.02900
C655        C  0.72914144  0.31601606  0.63702116    -0.09600
C656        C  0.72978938  0.32607850  0.69055316     0.06600
C657        C  0.73154152  0.36928966  0.70489651    -0.03300
C658        C  0.73601103  0.40091097  0.66632898    -0.07800
C659        C  0.73856215  0.39030457  0.61317560     0.05800
C660        C  0.73296255  0.34761630  0.59862389    -0.02800
Br661      Br  0.73129089  0.33088250  0.52646405    -0.02500
H662        H  0.72760168  0.28325753  0.62488345     0.09700
H663        H  0.73998138  0.43358540  0.67814730     0.07700
Br664      Br  0.72848483  0.38689075  0.77656307    -0.02900
C665        C  0.75900347  0.18596346  0.88467189    -0.09600
C666        C  0.75623843  0.18208201  0.83002742     0.06600
C667        C  0.75535441  0.14108496  0.80814277    -0.03300
C668        C  0.75192807  0.10534877  0.84075308    -0.07800
C669        C  0.75166502  0.10956737  0.89536188     0.05800
C670        C  0.75760194  0.15012444  0.91719577    -0.02800
Br671      Br  0.76061700  0.15871065  0.99140143    -0.02500
H672        H  0.76007015  0.21702355  0.90234230     0.09700
H673        H  0.74781944  0.07436320  0.82340989     0.07700
Br674      Br  0.75830211  0.13239259  0.73391318    -0.02900
C675        C  0.85050166  0.22929509  0.82218926    -0.09600
C676        C  0.81627434  0.25678453  0.83045197     0.06600
C677        C  0.81909549  0.28617736  0.87149254    -0.03300
C678        C  0.85583984  0.28896278  0.90183332    -0.07800
C679        C  0.89068474  0.26242688  0.89320942     0.05800
C680        C  0.88745495  0.23174589  0.85338110    -0.02800
Br681      Br  0.93315760  0.19437709  0.83823023    -0.02500
H682        H  0.84866255  0.20626245  0.79098379     0.09700
H683        H  0.85690191  0.31194197  0.93318386     0.07700
Br684      Br  0.77263047  0.32184425  0.88976288    -0.02900
C685        C  0.77758912  0.67782453  0.64933652    -0.09600
C686        C  0.74346284  0.67764881  0.68387116     0.06600
C687        C  0.71501795  0.64290314  0.68318158    -0.03300
C688        C  0.72146732  0.60909660  0.64816419    -0.07800
C689        C  0.75650659  0.60918631  0.61440130     0.05800
C690        C  0.78410685  0.64476467  0.61470762    -0.02800
Br691      Br  0.83163786  0.65139293  0.56834444    -0.02500
H692        H  0.79991970  0.70401713  0.64975967     0.09700
H693        H  0.70036052  0.58195719  0.64911749     0.07700
Br694      Br  0.66973049  0.63830205  0.73248788    -0.02900
C695        C  0.63499621  0.73946135  0.69462868    -0.09600
C696        C  0.67741458  0.74588758  0.68006844     0.06600
C697        C  0.68662378  0.75614241  0.62764730    -0.03300
C698        C  0.65407376  0.75888234  0.59078665    -0.07800
C699        C  0.61149416  0.75326092  0.60502505     0.05800
C700        C  0.60204841  0.74307122  0.65767362    -0.02800
Br701      Br  0.54503235  0.73777565  0.68239032    -0.02500
H702        H  0.62744166  0.73269037  0.73517498     0.09700
H703        H  0.66211764  0.76723899  0.55083374     0.07700
Br704      Br  0.74242980  0.77168740  0.60513099    -0.02900
C705        C  0.81882798  0.71829476  0.86347279    -0.09600
C706        C  0.81789827  0.75147310  0.82701456     0.06600
C707        C  0.85244967  0.78006461  0.82505219    -0.03300
C708        C  0.88723465  0.77468326  0.85914149    -0.07800
C709        C  0.88876059  0.74018761  0.89411987     0.05800
C710        C  0.85350685  0.71214856  0.89633174    -0.02800
Br711      Br  0.84929734  0.66472775  0.94391597    -0.02500
H712        H  0.79239081  0.69632318  0.86569749     0.09700
H713        H  0.91390119  0.79629210  0.85659037     0.07700
Br714      Br  0.85523897  0.82450284  0.77381123    -0.02900
C715        C  0.76030379  0.81790485  0.87641841    -0.09600
C716        C  0.75396475  0.82344896  0.82232769     0.06600
C717        C  0.74912958  0.86531594  0.80279459    -0.03300
C718        C  0.74723138  0.89966479  0.83760040    -0.07800
C719        C  0.75191076  0.89330567  0.89170023     0.05800
C720        C  0.76070364  0.85239215  0.91037579    -0.02800
Br721      Br  0.77243969  0.84242756  0.98289334    -0.02500
H722        H  0.76381329  0.78650415  0.89289133     0.09700
H723        H  0.74035187  0.93101512  0.82258939     0.07700
Br724      Br  0.74549230  0.87769560  0.72918081    -0.02900
loop_ 
_geom_bond_atom_site_label_1 
_geom_bond_atom_site_label_2 
_geom_bond_distance 
_geom_bond_site_symmetry_2 
_ccdc_geom_bond_type 
C1            C2   1.421       .  A
C1            C6   1.406       .  A
C1          C706   1.492       .  S
C2            C3   1.415       .  A
C2          C716   1.501       .  S
C3            C4   1.411       .  A
C3            H8   1.084       .  S
C4            C5   1.414       .  A
C4          C696   1.486       .  S
C5            C6   1.403       .  A
C5          C686   1.492       .  S
C6            H7   1.085       .  S
C9           C10   1.413       .  A
C9           C14   1.409       .  A
C9          C666   1.493       .  S
C10          C11   1.411       .  A
C10         C676   1.495       .  S
C11          C12   1.415       .  A
C11          H16   1.084       .  S
C12          C13   1.421       .  A
C12         C656   1.498       .  S
C13          C14   1.410       .  A
C13         C646   1.500       .  S
C14          H15   1.084       .  S
C17          C18   1.418       .  A
C17          C22   1.410       .  A
C17         C636   1.491       .  S
C18          C19   1.411       .  A
C18         C626   1.498       .  S
C19          C20   1.413       .  A
C19          H24   1.084       .  S
C20          C21   1.418       .  A
C20         C606   1.491       .  S
C21          C22   1.407       .  A
C21         C616   1.498       .  S
C22          H23   1.084       .  S
C25          C26   1.426       .  A
C25          C30   1.413       .  A
C25         C596   1.498       .  S
C26          C27   1.418       .  A
C26         C586   1.512       .  S
C27          C28   1.417       .  A
C27          H32   1.083       .  S
C28          C29   1.411       .  A
C28         C569   1.494       .  S
C29          C30   1.403       .  A
C29         C576   1.494       .  S
C30          H31   1.085       .  S
C33          C34   1.411       .  A
C33          C38   1.403       .  A
C33         C546   1.489       .  S
C34          C35   1.409       .  A
C34         C556   1.485       .  S
C35          C36   1.412       .  A
C35          H40   1.084       .  S
C36          C37   1.421       .  A
C36         C536   1.496       .  S
C37          C38   1.408       .  A
C37         C526   1.492       .  S
C38          H39   1.085       .  S
C41          C42   1.418       .  A
C41          C46   1.415       .  A
C41         C516   1.497       .  S
C42          C43   1.401       .  A
C42         C506   1.487       .  S
C43          C44   1.401       .  A
C43          H48   1.085       .  S
C44          C45   1.417       .  A
C44         C486   1.488       .  S
C45          C46   1.416       .  A
C45         C499   1.495       .  S
C46          H47   1.084       .  S
C49          C50   1.419       .  A
C49          C54   1.412       .  A
C49         C469   1.492       .  S
C50          C51   1.410       .  A
C50         C479   1.496       .  S
C51          C52   1.402       .  A
C51          H56   1.084       .  S
C52          C53   1.407       .  A
C52         C456   1.485       .  S
C53          C54   1.411       .  A
C53         C449   1.486       .  S
C54          H55   1.084       .  S
Fe57         O73   2.032       .  S
Fe57         O63   2.067       .  S
Fe57         O70   2.070       .  S
Fe57         O62   2.018       .  S
Fe57         O68   1.916       .  S
Fe58         O61   2.024       .  S
Fe58         O65   2.101       .  S
Fe58         O69   2.061       .  S
Fe58         O74   2.076       .  S
Fe58         O68   1.916       .  S
Fe59         O77   2.141       .  S
Fe59         O64   2.083       .  S
Fe59         O71   2.090       .  S
Fe59         O60   2.152       .  S
Fe59         O68   1.943       .  S
O60          C67   1.285       .  A
O61          C75   1.261       .  A
O62          C67   1.261       .  A
O63          C66   1.269       .  A
O64          C76   1.277       .  A
O65          C78   1.278       .  A
C66         C539   1.478       .  S
C66          O71   1.276       .  A
C67         C566   1.487       .  S
O69          C72   1.263       .  A
O70          C72   1.268       .  A
C72         C429   1.493       .  S
O73          C78   1.266       .  A
O74          C76   1.275       .  A
C75         C489   1.483       .  S
C75          O77   1.283       .  A
C76         C699   1.487       .  S
C78         C436   1.477       .  S
Fe79         O95   2.058   1_556  S
Fe79         O85   2.040   1_556  S
Fe79         O92   2.070       .  S
Fe79         O84   2.046       .  S
Fe79         O90   1.942   1_545  S
Fe80         O83   2.035   1_556  S
Fe80         O87   2.071   1_556  S
Fe80         O91   2.062       .  S
Fe80         O96   2.061       .  S
Fe80         O90   1.944       .  S
Fe81         O99   2.114       .  S
Fe81         O86   2.099   1_554  S
Fe81         O93   2.101   1_565  S
Fe81         O82   2.119   1_564  S
Fe81         O90   1.963   1_554  S
O82          C89   1.278       .  A
O83          C97   1.262       .  A
O84          C89   1.267       .  A
O85          C88   1.267       .  A
O86          C98   1.279       .  A
O87         C100   1.270   1_565  A
C88         C476   1.492       .  S
C88          O93   1.276       .  A
C89         C669   1.477       .  S
O91          C94   1.266       .  A
O92          C94   1.268   1_545  A
C94         C416   1.484       .  S
O95         C100   1.266       .  A
O96          C98   1.272       .  A
C97         C509   1.485       .  S
C97          O99   1.276       .  A
C98         C719   1.477       .  S
C100        C406   1.465       .  S
Fe101       O117   2.086       .  S
Fe101       O107   2.033       .  S
Fe101       O114   2.050   1_556  S
Fe101       O106   2.043   1_556  S
Fe101       O112   1.920       .  S
Fe102       O105   2.059       .  S
Fe102       O109   2.037       .  S
Fe102       O113   2.066   1_556  S
Fe102       O118   2.022   1_556  S
Fe102       O112   1.916   1_565  S
Fe103       O121   2.109   1_545  S
Fe103       O108   2.141   1_546  S
Fe103       O115   2.142       .  S
Fe103       O104   2.123   1_556  S
Fe103       O112   1.927       .  S
O104        C111   1.278       .  A
O105        C119   1.269       .  A
O106        C111   1.264       .  A
O107        C110   1.270       .  A
O108        C120   1.284       .  A
O109        C122   1.261   1_565  A
C110        C639   1.475       .  S
C110        O115   1.288       .  A
C111        C396   1.498       .  S
O113        C116   1.267   1_565  A
O114        C116   1.265       .  A
C116        C376   1.483       .  S
O117        C122   1.274       .  A
O118        C120   1.260       .  A
C119        C589   1.481       .  S
C119        O121   1.281       .  A
C120        C559   1.482       .  S
C122        C386   1.483       .  S
Fe123       O139   2.076       .  S
Fe123       O129   2.030       .  S
Fe123       O136   2.050       .  S
Fe123       O128   2.047       .  S
Fe123       O134   1.934       .  S
Fe124       O127   2.054       .  S
Fe124       O131   2.035       .  S
Fe124       O135   2.066       .  S
Fe124       O140   2.026       .  S
Fe124       O134   1.931       .  S
Fe125       O143   2.108       .  S
Fe125       O130   2.142       .  S
Fe125       O137   2.143       .  S
Fe125       O126   2.103       .  S
Fe125       O134   1.948       .  S
O126        C133   1.278       .  A
O127        C141   1.265       .  A
O128        C133   1.268       .  A
O129        C132   1.261       .  A
O130        C142   1.285       .  A
O131        C144   1.264       .  A
C132        C619   1.495       .  S
C132        O137   1.284       .  A
C133        C366   1.478       .  S
O135        C138   1.269       .  A
O136        C138   1.262       .  A
C138        C356   1.459       .  S
O139        C144   1.269       .  A
O140        C142   1.264       .  A
C141        C649   1.499       .  S
C141        O143   1.278       .  A
C142        C459   1.478       .  S
C144        C346   1.471       .  S
C145        C359   1.575   1_565  S
C145        C379   1.565       .  S
C145        C409   1.591   1_565  S
C145        C439   1.575       .  S
C146        C349   1.551       .  S
C146        C389   1.569       .  S
C146        C419   1.570       .  S
C146        C426   1.575   1_545  S
Fe147       O163   2.040       .  S
Fe147       O153   2.070       .  S
Fe147       O160   2.080       .  S
Fe147       O152   2.023       .  S
Fe147       O158   1.926       .  S
Fe148       O151   2.016       .  S
Fe148       O155   2.082       .  S
Fe148       O159   2.046       .  S
Fe148       O164   2.073       .  S
Fe148       O158   1.930       .  S
Fe149       O167   2.143       .  S
Fe149       O154   2.092       .  S
Fe149       O161   2.092       .  S
Fe149       O150   2.148       .  S
Fe149       O158   1.947       .  S
O150        C157   1.286       .  A
O151        C165   1.262       .  A
O152        C157   1.262       .  A
O153        C156   1.269       .  A
O154        C166   1.276       .  A
O155        C168   1.270       .  A
C156        C496   1.481       .  S
C156        O161   1.274       .  A
C157        C689   1.487       .  S
O159        C162   1.265       .  A
O160        C162   1.270       .  A
C162        C326   1.473       .  S
O163        C168   1.266       .  A
O164        C166   1.271       .  A
C165        C446   1.488       .  S
C165        O167   1.285       .  A
C166        C659   1.482       .  S
C168        C336   1.487       .  S
Fe169       O185   2.031       .  S
Fe169       O175   2.055       .  S
Fe169       O182   2.065   1_554  S
Fe169       O174   2.027   1_554  S
Fe169       O180   1.931   1_655  S
Fe170       O173   2.034       .  S
Fe170       O177   2.073       .  S
Fe170       O181   2.049   1_554  S
Fe170       O186   2.049   1_554  S
Fe170       O180   1.928       .  S
Fe171       O189   2.131   1_556  S
Fe171       O176   2.111       .  S
Fe171       O183   2.106   1_456  S
Fe171       O172   2.139   1_455  S
Fe171       O180   1.952   1_556  S
O172        C179   1.283       .  A
O173        C187   1.264       .  A
O174        C179   1.261       .  A
O175        C178   1.268       .  A
O176        C188   1.279       .  A
O177        C190   1.271       .  A
C178        C519   1.485       .  S
C178        O183   1.278       .  A
C179        C709   1.488       .  S
O181        C184   1.265       .  A
O182        C184   1.264   1_655  A
C184        C316   1.484       .  S
O185        C190   1.263   1_655  A
O186        C188   1.269       .  A
C187        C549   1.477       .  S
C187        O189   1.282       .  A
C188        C599   1.503       .  S
C190        C306   1.461       .  S
Fe191       O207   2.069   1_554  S
Fe191       O197   2.038   1_554  S
Fe191       O204   2.051       .  S
Fe191       O196   2.053       .  S
Fe191       O202   1.916   1_655  S
Fe192       O195   2.058   1_554  S
Fe192       O199   2.037   1_554  S
Fe192       O203   2.062       .  S
Fe192       O208   2.029       .  S
Fe192       O202   1.926       .  S
Fe193       O211   2.130   1_554  S
Fe193       O198   2.154       .  S
Fe193       O205   2.135   1_454  S
Fe193       O194   2.118   1_455  S
Fe193       O202   1.931       .  S
O194        C201   1.285       .  A
O195        C209   1.260       .  A
O196        C201   1.271       .  A
O197        C200   1.266       .  A
O198        C210   1.289       .  A
O199        C212   1.266       .  A
C200        C679   1.494       .  S
C200        O205   1.283       .  A
C201        C466   1.494       .  S
O203        C206   1.267       .  A
O204        C206   1.262   1_655  A
C206        C279   1.482       .  S
O207        C212   1.273   1_655  A
O208        C210   1.265       .  A
C209        C629   1.507       .  S
C209        O211   1.281       .  A
C210        C296   1.477       .  S
C212        C289   1.462       .  S
Fe213       O229   2.064       .  S
Fe213       O219   2.031       .  S
Fe213       O226   2.041       .  S
Fe213       O218   2.062       .  S
Fe213       O224   1.918       .  S
Fe214       O217   2.039       .  S
Fe214       O221   2.039       .  S
Fe214       O225   2.055       .  S
Fe214       O230   2.033       .  S
Fe214       O224   1.921       .  S
Fe215       O233   2.104       .  S
Fe215       O220   2.142       .  S
Fe215       O227   2.145       .  S
Fe215       O216   2.100       .  S
Fe215       O224   1.935       .  S
O216        C223   1.278       .  A
O217        C231   1.266       .  A
O218        C223   1.266       .  A
O219        C222   1.263       .  A
O220        C232   1.285       .  A
O221        C234   1.262       .  A
C222        C579   1.479       .  S
C222        O227   1.285       .  A
C223        C529   1.495       .  S
O225        C228   1.266       .  A
O226        C228   1.265       .  A
C228        C256   1.456       .  S
O229        C234   1.271       .  A
O230        C232   1.263       .  A
C231        C609   1.480       .  S
C231        O233   1.279       .  A
C232        C269   1.493       .  S
C234        C249   1.478       .  S
C235        C259   1.548       .  S
C235        C276   1.563       .  S
C235        C309   1.557       .  S
C235        C339   1.570   1_455  S
C236        C246   1.550       .  S
C236        C286   1.554       .  S
C236        C319   1.563       .  S
C236        C329   1.559   1_455  S
C237        C238   1.418       .  A
C237        C242   1.416       .  A
C237        C399   1.502       .  S
C238        C239   1.408       .  A
C238        C299   1.494       .  S
C239        C240   1.410       .  A
C239        H244   1.085       .  S
C240        C241   1.420       .  A
C240        C266   1.496       .  S
C241        C242   1.414       .  A
C241        C369   1.500       .  S
C242        H243   1.084       .  S
C245        C246   1.416       .  A
C245        C250   1.395       .  A
C245        H252   1.077       .  S
C246        C247   1.428       .  A
C247        C248   1.386       .  A
C247       Br254   1.927       .  S
C248        C249   1.399       .  A
C248        H253   1.083       .  S
C249        C250   1.411       .  A
C250       Br251   1.926       .  S
C255        C256   1.396       .  A
C255        C260   1.393       .  A
C255        H262   1.085       .  S
C256        C257   1.393       .  A
C257        C258   1.386       .  A
C257       Br264   1.920       .  S
C258        C259   1.421       .  A
C258        H263   1.080       .  S
C259        C260   1.434       .  A
C260       Br261   1.931       .  S
C265        C266   1.399       .  A
C265        C270   1.394       .  A
C265        H272   1.084       .  S
C266        C267   1.414       .  A
C267        C268   1.412       .  A
C267       Br274   1.915       .  S
C268        C269   1.408       .  A
C268        H273   1.083       .  S
C269        C270   1.420       .  A
C270       Br271   1.926       .  S
C275        C276   1.420   1_655  A
C275        C280   1.396       .  A
C275        H282   1.078       .  S
C276        C277   1.426       .  A
C277        C278   1.390       .  A
C277       Br284   1.918       .  S
C278        C279   1.401       .  A
C278        H283   1.083       .  S
C279        C280   1.409   1_455  A
C280       Br281   1.925       .  S
C285        C286   1.418       .  A
C285        C290   1.388       .  A
C285        H292   1.076       .  S
C286        C287   1.435   1_455  A
C287        C288   1.391       .  A
C287       Br294   1.932       .  S
C288        C289   1.396   1_655  A
C288        H293   1.085       .  S
C289        C290   1.398       .  A
C290       Br291   1.920       .  S
C295        C296   1.406       .  A
C295        C300   1.403       .  A
C295        H302   1.084       .  S
C296        C297   1.408       .  A
C297        C298   1.403       .  A
C297       Br304   1.914       .  S
C298        C299   1.406       .  A
C298        H303   1.083       .  S
C299        C300   1.410       .  A
C300       Br301   1.917       .  S
C305        C306   1.394       .  A
C305        C310   1.397       .  A
C305        H312   1.085       .  S
C306        C307   1.398   1_455  A
C307        C308   1.388       .  A
C307       Br314   1.921       .  S
C308        C309   1.420   1_655  A
C308        H313   1.082       .  S
C309        C310   1.441       .  A
C310       Br311   1.934       .  S
C315        C316   1.400       .  A
C315        C320   1.396       .  A
C315        H322   1.084       .  S
C316        C317   1.410   1_455  A
C317        C318   1.392       .  A
C317       Br324   1.924       .  S
C318        C319   1.414   1_655  A
C318        H323   1.078       .  S
C319        C320   1.438       .  A
C320       Br321   1.933       .  S
C325        C326   1.395       .  A
C325        C330   1.396       .  A
C325        H332   1.084       .  S
C326        C327   1.405       .  A
C327        C328   1.394       .  A
C327       Br334   1.918       .  S
C328        C329   1.414       .  A
C328        H333   1.077       .  S
C329        C330   1.434       .  A
C330       Br331   1.926       .  S
C335        C336   1.404       .  A
C335        C340   1.398       .  A
C335        H342   1.083       .  S
C336        C337   1.408       .  A
C337        C338   1.392       .  A
C337       Br344   1.924       .  S
C338        C339   1.419       .  A
C338        H343   1.080       .  S
C339        C340   1.433       .  A
C340       Br341   1.930       .  S
C345        C346   1.397       .  A
C345        C350   1.394       .  A
C345        H352   1.084       .  S
C346        C347   1.405       .  A
C347        C348   1.389       .  A
C347       Br354   1.915       .  S
C348        C349   1.412       .  A
C348        H353   1.078       .  S
C349        C350   1.434       .  A
C350       Br351   1.929       .  S
C355        C356   1.401       .  A
C355        C360   1.410       .  A
C355        H362   1.084       .  S
C356        C357   1.389       .  A
C357        C358   1.378       .  A
C357       Br364   1.927       .  S
C358        C359   1.427       .  A
C358        H363   1.074   1_545  S
C359        C360   1.432       .  A
C360       Br361   1.922       .  S
C365        C366   1.401       .  A
C365        C370   1.407       .  A
C365        H372   1.083       .  S
C366        C367   1.407       .  A
C367        C368   1.397       .  A
C367       Br374   1.911       .  S
C368        C369   1.403       .  A
C368        H373   1.082       .  S
C369        C370   1.418       .  A
C370       Br371   1.913       .  S
C375        C376   1.408       .  A
C375        C380   1.402       .  A
C375        H382   1.083       .  S
C376        C377   1.412   1_545  A
C377        C378   1.390       .  A
C377       Br384   1.925       .  S
C378        C379   1.420       .  A
C378        H383   1.083       .  S
C379        C380   1.424   1_565  A
C380       Br381   1.926       .  S
C385        C386   1.396       .  A
C385        C390   1.394       .  A
C385        H392   1.084       .  S
C386        C387   1.410   1_545  A
C387        C388   1.396       .  A
C387       Br394   1.925       .  S
C388        C389   1.419   1_565  A
C388        H393   1.080       .  S
C389        C390   1.433       .  A
C390       Br391   1.919       .  S
C395        C396   1.409       .  A
C395        C400   1.391       .  A
C395        H402   1.084       .  S
C396        C397   1.412       .  A
C397        C398   1.415       .  A
C397       Br404   1.915       .  S
C398        C399   1.415       .  A
C398        H403   1.083       .  S
C399        C400   1.408       .  A
C400       Br401   1.918       .  S
C405        C406   1.404       .  A
C405        C410   1.413       .  A
C405        H412   1.084   1_545  S
C406        C407   1.385       .  A
C407        C408   1.381       .  A
C407       Br414   1.925       .  S
C408        C409   1.430       .  A
C408        H413   1.073       .  S
C409        C410   1.431       .  A
C410       Br411   1.922       .  S
C415        C416   1.400   1_545  A
C415        C420   1.401       .  A
C415        H422   1.084       .  S
C416        C417   1.403       .  A
C417        C418   1.396       .  A
C417       Br424   1.921       .  S
C418        C419   1.421   1_565  A
C418        H423   1.081       .  S
C419        C420   1.437       .  A
C420       Br421   1.930       .  S
C425        C426   1.416       .  A
C425        C430   1.402       .  A
C425        H432   1.078       .  S
C426        C427   1.433       .  A
C427        C428   1.395       .  A
C427       Br434   1.928       .  S
C428        C429   1.401       .  A
C428        H433   1.083       .  S
C429        C430   1.414       .  A
C430       Br431   1.923       .  S
C435        C436   1.393       .  A
C435        C440   1.389       .  A
C435        H442   1.084       .  S
C436        C437   1.408       .  A
C437        C438   1.407       .  A
C437       Br444   1.917       .  S
C438        C439   1.414       .  A
C438        H443   1.077       .  S
C439        C440   1.437       .  A
C440       Br441   1.921       .  S
C445        C446   1.410       .  A
C445        C450   1.390       .  A
C445        H452   1.084       .  S
C446        C447   1.410       .  A
C447        C448   1.411       .  A
C447       Br454   1.916       .  S
C448        C449   1.411       .  A
C448        H453   1.082       .  S
C449        C450   1.402       .  A
C450       Br451   1.921       .  S
C455        C456   1.396       .  A
C455        C460   1.396       .  A
C455        H462   1.084       .  S
C456        C457   1.411       .  A
C457        C458   1.406       .  A
C457       Br464   1.916       .  S
C458        C459   1.404       .  A
C458        H463   1.083       .  S
C459        C460   1.414       .  A
C460       Br461   1.913       .  S
C465        C466   1.411       .  A
C465        C470   1.399       .  A
C465        H472   1.084       .  S
C466        C467   1.411       .  A
C467        C468   1.410       .  A
C467       Br474   1.913       .  S
C468        C469   1.408       .  A
C468        H473   1.083       .  S
C469        C470   1.405       .  A
C470       Br471   1.919       .  S
C475        C476   1.407       .  A
C475        C480   1.387       .  A
C475        H482   1.084       .  S
C476        C477   1.412       .  A
C477        C478   1.411       .  A
C477       Br484   1.916       .  S
C478        C479   1.412       .  A
C478        H483   1.082       .  S
C479        C480   1.410       .  A
C480       Br481   1.923       .  S
C485        C486   1.396       .  A
C485        C490   1.388       .  A
C485        H492   1.084       .  S
C486        C487   1.413       .  A
C487        C488   1.413       .  A
C487       Br494   1.915       .  S
C488        C489   1.407       .  A
C488        H493   1.083       .  S
C489        C490   1.416       .  A
C490       Br491   1.924       .  S
C495        C496   1.405       .  A
C495        C500   1.408       .  A
C495        H502   1.083       .  S
C496        C497   1.409       .  A
C497        C498   1.395       .  A
C497       Br504   1.917       .  S
C498        C499   1.402       .  A
C498        H503   1.082       .  S
C499        C500   1.415       .  A
C500       Br501   1.919       .  S
C505        C506   1.398       .  A
C505        C510   1.391       .  A
C505        H512   1.084       .  S
C506        C507   1.411       .  A
C507        C508   1.410       .  A
C507       Br514   1.916       .  S
C508        C509   1.407       .  A
C508        H513   1.083       .  S
C509        C510   1.417       .  A
C510       Br511   1.926       .  S
C515        C516   1.400       .  A
C515        C520   1.393       .  A
C515        H522   1.082       .  S
C516        C517   1.417       .  A
C517        C518   1.412       .  A
C517       Br524   1.918       .  S
C518        C519   1.406       .  A
C518        H523   1.083       .  S
C519        C520   1.410       .  A
C520       Br521   1.913       .  S
C525        C526   1.397       .  A
C525        C530   1.391       .  A
C525        H532   1.084       .  S
C526        C527   1.413       .  A
C527        C528   1.410       .  A
C527       Br534   1.916       .  S
C528        C529   1.409       .  A
C528        H533   1.083       .  S
C529        C530   1.423       .  A
C530       Br531   1.926       .  S
C535        C536   1.404       .  A
C535        C540   1.395       .  A
C535        H542   1.082       .  S
C536        C537   1.416       .  A
C537        C538   1.406       .  A
C537       Br544   1.920       .  S
C538        C539   1.404       .  A
C538        H543   1.083       .  S
C539        C540   1.410       .  A
C540       Br541   1.922       .  S
C545        C546   1.400       .  A
C545        C550   1.397       .  A
C545        H552   1.083       .  S
C546        C547   1.413       .  A
C547        C548   1.406       .  A
C547       Br554   1.919       .  S
C548        C549   1.404       .  A
C548        H553   1.083       .  S
C549        C550   1.411       .  A
C550       Br551   1.915       .  S
C555        C556   1.396       .  A
C555        C560   1.394       .  A
C555        H562   1.084       .  S
C556        C557   1.412       .  A
C557        C558   1.409       .  A
C557       Br564   1.915       .  S
C558        C559   1.404       .  A
C558        H563   1.083       .  S
C559        C560   1.418       .  A
C560       Br561   1.924       .  S
C565        C566   1.407       .  A
C565        C570   1.390       .  A
C565        H572   1.084       .  S
C566        C567   1.408       .  A
C567        C568   1.412       .  A
C567       Br574   1.915       .  S
C568        C569   1.413       .  A
C568        H573   1.083       .  S
C569        C570   1.406       .  A
C570       Br571   1.917       .  S
C575        C576   1.408       .  A
C575        C580   1.408       .  A
C575        H582   1.083       .  S
C576        C577   1.407       .  A
C577        C578   1.401       .  A
C577       Br584   1.916       .  S
C578        C579   1.406       .  A
C578        H583   1.084       .  S
C579        C580   1.407       .  A
C580       Br581   1.916       .  S
C585        C586   1.409       .  A
C585        C590   1.401       .  A
C585        H592   1.082       .  S
C586        C587   1.421       .  A
C587        C588   1.408       .  A
C587       Br594   1.913       .  S
C588        C589   1.401       .  A
C588        H593   1.084       .  S
C589        C590   1.405       .  A
C590       Br591   1.914       .  S
C595        C596   1.412       .  A
C595        C600   1.415       .  A
C595        H602   1.083       .  S
C596        C597   1.408       .  A
C597        C598   1.389       .  A
C597       Br604   1.926       .  S
C598        C599   1.411       .  A
C598        H603   1.083       .  S
C599        C600   1.416       .  A
C600       Br601   1.916       .  S
C605        C606   1.399       .  A
C605        C610   1.392       .  A
C605        H612   1.083       .  S
C606        C607   1.414       .  A
C607        C608   1.408       .  A
C607       Br614   1.918       .  S
C608        C609   1.404       .  A
C608        H613   1.083       .  S
C609        C610   1.413       .  A
C610       Br611   1.917       .  S
C615        C616   1.398       .  A
C615        C620   1.397       .  A
C615        H622   1.084       .  S
C616        C617   1.414       .  A
C617        C618   1.412       .  A
C617       Br624   1.915       .  S
C618        C619   1.406       .  A
C618        H623   1.083       .  S
C619        C620   1.421       .  A
C620       Br621   1.926       .  S
C625        C626   1.396       .  A
C625        C630   1.399       .  A
C625        H632   1.084       .  S
C626        C627   1.413       .  A
C627        C628   1.412       .  A
C627       Br634   1.914       .  S
C628        C629   1.409       .  A
C628        H633   1.083       .  S
C629        C630   1.430       .  A
C630       Br631   1.927       .  S
C635        C636   1.401       .  A
C635        C640   1.396       .  A
C635        H642   1.082       .  S
C636        C637   1.413       .  A
C637        C638   1.404       .  A
C637       Br644   1.919       .  S
C638        C639   1.403       .  A
C638        H643   1.083       .  S
C639        C640   1.411       .  A
C640       Br641   1.915       .  S
C645        C646   1.400       .  A
C645        C650   1.394       .  A
C645        H652   1.084       .  S
C646        C647   1.415       .  A
C647        C648   1.412       .  A
C647       Br654   1.915       .  S
C648        C649   1.408       .  A
C648        H653   1.083       .  S
C649        C650   1.423       .  A
C650       Br651   1.928       .  S
C655        C656   1.405       .  A
C655        C660   1.400       .  A
C655        H662   1.083       .  S
C656        C657   1.416       .  A
C657        C658   1.406       .  A
C657       Br664   1.918       .  S
C658        C659   1.402       .  A
C658        H663   1.083       .  S
C659        C660   1.411       .  A
C660       Br661   1.920       .  S
C665        C666   1.403       .  A
C665        C670   1.401       .  A
C665        H672   1.083       .  S
C666        C667   1.414       .  A
C667        C668   1.403       .  A
C667       Br674   1.919       .  S
C668        C669   1.401       .  A
C668        H673   1.083       .  S
C669        C670   1.411       .  A
C670       Br671   1.917       .  S
C675        C676   1.410       .  A
C675        C680   1.413       .  A
C675        H682   1.083       .  S
C676        C677   1.406       .  A
C677        C678   1.396       .  A
C677       Br684   1.919       .  S
C678        C679   1.409       .  A
C678        H683   1.084       .  S
C679        C680   1.412       .  A
C680       Br681   1.915       .  S
C685        C686   1.397       .  A
C685        C690   1.389       .  A
C685        H692   1.084       .  S
C686        C687   1.414       .  A
C687        C688   1.413       .  A
C687       Br694   1.915       .  S
C688        C689   1.407       .  A
C688        H693   1.083       .  S
C689        C690   1.418       .  A
C690       Br691   1.927       .  S
C695        C696   1.407       .  A
C695        C700   1.407       .  A
C695        H702   1.083       .  S
C696        C697   1.406       .  A
C697        C698   1.394       .  A
C697       Br704   1.918       .  S
C698        C699   1.406       .  A
C698        H703   1.083       .  S
C699        C700   1.413       .  A
C700       Br701   1.919       .  S
C705        C706   1.398       .  A
C705        C710   1.392       .  A
C705        H712   1.084       .  S
C706        C707   1.413       .  A
C707        C708   1.410       .  A
C707       Br714   1.915       .  S
C708        C709   1.406       .  A
C708        H713   1.083       .  S
C709        C710   1.420       .  A
C710       Br711   1.928       .  S
C715        C716   1.405       .  A
C715        C720   1.396       .  A
C715        H722   1.082       .  S
C716        C717   1.420       .  A
C717        C718   1.408       .  A
C717       Br724   1.921       .  S
C718        C719   1.402       .  A
C718        H723   1.083       .  S
C719        C720   1.405       .  A
C720       Br721   1.911       .  S
