geometry optimzed in LAMMPS
_audit_creation_date              2020-11-30 
_audit_creation_method            'lammps2cif' 
_symmetry_space_group_name_H-M    'P1' 
_symmetry_Int_Tables_number       1 
_symmetry_cell_setting            triclinic 
loop_ 
_symmetry_equiv_pos_as_xyz 
  x,y,z 
_cell_length_a                    46.3834267 
_cell_length_b                    46.38737474195697 
_cell_length_c                    46.2858959624185 
_cell_angle_alpha                 90.00831658013452 
_cell_angle_beta                  89.98746920922586 
_cell_angle_gamma                 90.08345050318886 
loop_ 
_atom_site_label 
_atom_site_type_symbol 
_atom_site_fract_x 
_atom_site_fract_y 
_atom_site_fract_z 
_atom_site_charge 
C1          C  0.83835054  0.46749857  0.83827253     0.02800
C2          C  0.85747147  0.48288153  0.81989306     0.02800
C3          C  0.85826967  0.51341270  0.82086879     0.02800
C4          C  0.83942260  0.52857916  0.83968292     0.02800
C5          C  0.81872454  0.51339242  0.85652179     0.02800
C6          C  0.81849585  0.48272938  0.85614398     0.02800
N7          N  0.84687401  0.22359766  0.86573999    -0.26800
N8          N  0.86848673  0.22447558  0.84715296    -0.34600
C9          C  0.87828788  0.25172533  0.84531533     0.01600
C10         C  0.86161216  0.26885071  0.86314527     0.07600
C11         C  0.84193285  0.25034089  0.87570985    -0.05500
H12         H  0.89360869  0.25913734  0.82929758     0.08300
H13         H  0.82348536  0.25633734  0.88869686     0.09500
Cu14       Cu  0.87656542  0.19161138  0.81802103     0.44200
Cu15       Cu  0.81941852  0.18871552  0.87003391     0.42000
Cu16       Cu  0.82200494  0.13608445  0.81277099     0.43900
N17         N  0.87372694  0.16250228  0.78422945    -0.34200
N18         N  0.85469800  0.14129655  0.78288861    -0.28400
C19         C  0.85443756  0.13052063  0.75592727    -0.04500
C20         C  0.87368848  0.14615649  0.73937765     0.07700
C21         C  0.88553478  0.16617047  0.75800094     0.01500
H22         H  0.83813159  0.11585966  0.74788290     0.09100
H23         H  0.89887240  0.18439095  0.75207333     0.08200
N24         N  0.78584738  0.14370392  0.83778523    -0.35600
N25         N  0.78554258  0.16155189  0.86005043    -0.27800
C26         C  0.75816500  0.16546650  0.86865381    -0.03000
C27         C  0.74037153  0.14996094  0.85046821     0.05600
C28         C  0.75856205  0.13646879  0.83112247     0.03700
H29         H  0.75147359  0.18151636  0.88425408     0.08800
H30         H  0.75232016  0.12448348  0.81205300     0.07600
C31         C  0.54370659  0.18660798  0.82847432     0.02800
C32         C  0.52883754  0.20541317  0.84749175     0.02800
C33         C  0.49835180  0.20539054  0.84824034     0.02800
C34         C  0.48260146  0.18687303  0.82944014     0.02800
C35         C  0.49738351  0.16952108  0.80881288     0.02800
C36         C  0.52803677  0.16881201  0.80893091     0.02800
C37         C  0.18826890  0.52764122  0.84168076     0.02800
C38         C  0.20793667  0.51233105  0.85958557     0.02800
C39         C  0.20887224  0.48184268  0.85832354     0.02800
C40         C  0.19041419  0.46673183  0.83904752     0.02800
C41         C  0.17244977  0.48227192  0.81961920     0.02800
C42         C  0.17216326  0.51277857  0.82014421     0.02800
N43         N  0.24063487  0.16704082  0.86645350    -0.26800
N44         N  0.24232840  0.14532614  0.84804017    -0.34600
C45         C  0.26997503  0.13693599  0.84590905     0.01600
C46         C  0.28653323  0.15472860  0.86319464     0.07600
C47         C  0.26726514  0.17352464  0.87590489    -0.05500
H48         H  0.27790630  0.12199597  0.82979647     0.08300
H49         H  0.27253937  0.19244108  0.88854577     0.09500
Cu50       Cu  0.21036794  0.13608489  0.81827343     0.44200
Cu51       Cu  0.20444522  0.19257735  0.87121499     0.42000
Cu52       Cu  0.15315882  0.18856576  0.81307629     0.43900
N53         N  0.18323519  0.13980053  0.78295547    -0.34200
N54         N  0.16139311  0.15803241  0.78166115    -0.28400
C55         C  0.15156967  0.15910725  0.75437811    -0.04500
C56         C  0.16848013  0.14125840  0.73756976     0.07700
C57         C  0.18832828  0.12937963  0.75634141     0.01500
H58         H  0.13619573  0.17483562  0.74662525     0.09100
H59         H  0.20696520  0.11660543  0.75056429     0.08200
N60         N  0.15698928  0.22370256  0.84029014    -0.35600
N61         N  0.17455585  0.22442692  0.86275820    -0.27800
C62         C  0.17594513  0.25153819  0.87286186    -0.03000
C63         C  0.15904523  0.26879957  0.85546202     0.05600
C64         C  0.14736970  0.25051254  0.83502870     0.03700
H65         H  0.19134319  0.25883019  0.88885846     0.08800
H66         H  0.13522672  0.25667823  0.81604558     0.07600
C67         C  0.48195536  0.82893071  0.83942137     0.02800
C68         C  0.49586312  0.80948370  0.85861454     0.02800
C69         C  0.52631537  0.80881781  0.85999966     0.02800
C70         C  0.54279306  0.82744775  0.84198200     0.02800
C71         C  0.52900694  0.84494183  0.82080910     0.02800
C72         C  0.49846275  0.84633043  0.82030998     0.02800
N73         N  0.15386124  0.82891951  0.78991608    -0.26800
N74         N  0.17401847  0.84914762  0.78990797    -0.34600
C75         C  0.17873077  0.85779124  0.76267780     0.01600
C76         C  0.16056592  0.84265956  0.74468413     0.07600
C77         C  0.14488640  0.82464705  0.76257266    -0.05500
H78         H  0.19625744  0.87178543  0.75616945     0.08300
H79         H  0.13097529  0.80713563  0.75586072     0.09500
Cu80       Cu  0.20147111  0.85855716  0.82370369     0.44200
Cu81       Cu  0.14676534  0.80112185  0.82431315     0.42000
Cu82       Cu  0.20540074  0.80393304  0.87579485     0.43900
N83         N  0.23710720  0.85373352  0.84986794    -0.34200
N84         N  0.23885011  0.83229523  0.86851797    -0.28400
C85         C  0.26656839  0.82832645  0.87577310    -0.04500
C86         C  0.28301982  0.84850036  0.86131619     0.07700
C87         C  0.26368381  0.86442000  0.84515877     0.01500
H88         H  0.27446548  0.81013992  0.88808754     0.09100
H89         H  0.26897553  0.87958565  0.82818037     0.08200
N90         N  0.17664337  0.77018342  0.87272491    -0.35600
N91         N  0.15494459  0.76887603  0.85424811    -0.27800
C92         C  0.14525178  0.74151459  0.85309161    -0.03000
C93         C  0.16207203  0.72490028  0.87128137     0.05600
C94         C  0.18151335  0.74383165  0.88351909     0.03700
H95         H  0.13003508  0.73362158  0.83722451     0.08800
H96         H  0.20005497  0.73829047  0.89656507     0.07600
C97         C  0.48597715  0.81730725  0.19374962     0.02800
C98         C  0.50025732  0.83487643  0.21448621     0.02800
C99         C  0.53087552  0.83509089  0.21576199     0.02800
C100        C  0.54680471  0.81868398  0.19527400     0.02800
C101        C  0.53238757  0.79915206  0.17654735     0.02800
C102        C  0.50192710  0.79830607  0.17592716     0.02800
C103        C  0.19278393  0.82168849  0.54682186     0.02800
C104        C  0.17614725  0.80126774  0.53093858     0.02800
C105        C  0.17615618  0.80262348  0.50028217     0.02800
C106        C  0.19371964  0.82308969  0.48577807     0.02800
C107        C  0.21230004  0.84138233  0.50169400     0.02800
C108        C  0.21167358  0.84093138  0.53220777     0.02800
N109        N  0.16832613  0.84167418  0.24392432    -0.26800
N110        N  0.19151090  0.85817083  0.24211959    -0.34600
C111        C  0.19832043  0.86778482  0.26868065     0.01600
C112        C  0.17804568  0.85737123  0.28790053     0.07600
C113        C  0.15923078  0.84112110  0.27146603    -0.05500
H114        H  0.21799121  0.87920438  0.27396954     0.08300
H115        H  0.14274691  0.82669312  0.27955236     0.09500
Cu116      Cu  0.21693910  0.86066014  0.20550491     0.44200
Cu117      Cu  0.15733704  0.81169923  0.21276761     0.42000
Cu118      Cu  0.20709519  0.80328245  0.15361087     0.43900
N119        N  0.24676445  0.85043797  0.17400879    -0.34200
N120        N  0.24393269  0.82828272  0.15625942    -0.28400
C121        C  0.27001271  0.82134414  0.14566908    -0.04500
C122        C  0.28998260  0.84044743  0.15677804     0.07700
C123        C  0.27450363  0.85872926  0.17444397     0.01500
H124        H  0.27451196  0.80208570  0.13324909     0.09100
H125        H  0.28338389  0.87400034  0.18974101     0.08200
N126        N  0.17666597  0.77264404  0.16459153    -0.35600
N127        N  0.15960374  0.77506838  0.18733778    -0.27800
C128        C  0.14943192  0.74882048  0.19432742    -0.03000
C129        C  0.16028590  0.72908664  0.17476856     0.05600
C130        C  0.17716545  0.74496358  0.15603616     0.03700
H131        H  0.13742096  0.74407586  0.21380239     0.08800
H132        H  0.19187928  0.73644902  0.14005197     0.07600
C133        C  0.19299590  0.53146949  0.19389565     0.02800
C134        C  0.17469659  0.51638190  0.21327732     0.02800
C135        C  0.17536852  0.48595969  0.21393399     0.02800
C136        C  0.19407401  0.47045648  0.19543505     0.02800
C137        C  0.21362065  0.48548477  0.17716622     0.02800
C138        C  0.21357344  0.51613955  0.17695391     0.02800
C139        C  0.48567128  0.17098821  0.19017003     0.02800
C140        C  0.50071398  0.18995325  0.17128547     0.02800
C141        C  0.53120163  0.18949873  0.17066680     0.02800
C142        C  0.54643902  0.16982339  0.18856047     0.02800
C143        C  0.53164877  0.15232217  0.20888531     0.02800
C144        C  0.50109967  0.15282838  0.20940937     0.02800
N145        N  0.24342401  0.16292571  0.15786342    -0.26800
N146        N  0.24284215  0.14065104  0.17561916    -0.34600
C147        C  0.26970603  0.12998646  0.17808432     0.01600
C148        C  0.28798118  0.14683212  0.16151451     0.07600
C149        C  0.27058236  0.16738985  0.14898974    -0.05500
H150        H  0.27610815  0.11419783  0.19405425     0.08300
H151        H  0.27765634  0.18634369  0.13732184     0.09500
Cu152      Cu  0.20875325  0.13377315  0.20370992     0.44200
Cu153      Cu  0.21063097  0.19246564  0.15457704     0.42000
Cu154      Cu  0.15288355  0.18986010  0.20572231     0.43900
N155        N  0.17973870  0.13955621  0.23728981    -0.34200
N156        N  0.15880971  0.15892125  0.23761669    -0.28400
C157        C  0.14848398  0.16107943  0.26469845    -0.04500
C158        C  0.16389829  0.14262228  0.28229192     0.07700
C159        C  0.18355826  0.12945665  0.26422357     0.01500
H160        H  0.13409886  0.17798496  0.27185997     0.09100
H161        H  0.20161900  0.11624766  0.27079390     0.08200
N162        N  0.16224079  0.22617460  0.18116876    -0.35600
N163        N  0.18424893  0.22700049  0.16305500    -0.27800
C164        C  0.19023641  0.25452945  0.15645374    -0.03000
C165        C  0.17084191  0.27191879  0.17070652     0.05600
C166        C  0.15321965  0.25332492  0.18607629     0.03700
H167        H  0.20897707  0.26146473  0.14436915     0.08800
H168        H  0.13756994  0.25927070  0.20236908     0.07600
C169        C  0.19207840  0.17662849  0.54057606     0.02800
C170        C  0.21100178  0.15857760  0.52448820     0.02800
C171        C  0.21025676  0.15901796  0.49391511     0.02800
C172        C  0.18933708  0.17610162  0.47957931     0.02800
C173        C  0.17177313  0.19566618  0.49538445     0.02800
C174        C  0.17350573  0.19628237  0.52607696     0.02800
C175        C  0.83245846  0.53383324  0.19339256     0.02800
C176        C  0.85124176  0.52018418  0.21343526     0.02800
C177        C  0.85149112  0.48972638  0.21563921     0.02800
C178        C  0.83344089  0.47298670  0.19731292     0.02800
C179        C  0.81415629  0.48661293  0.17766323     0.02800
C180        C  0.81369854  0.51711103  0.17590222     0.02800
C181        C  0.84306718  0.17299053  0.54231593     0.02800
C182        C  0.86085740  0.19262315  0.52687890     0.02800
C183        C  0.86026895  0.19295935  0.49625956     0.02800
C184        C  0.84354046  0.17190956  0.48132589     0.02800
C185        C  0.82409644  0.15388958  0.49680128     0.02800
C186        C  0.82375881  0.15462618  0.52741191     0.02800
N187        N  0.85338691  0.23307050  0.15943473    -0.26800
N188        N  0.87394517  0.23144052  0.17915525    -0.34600
C189        C  0.88311086  0.25827786  0.18533852     0.01600
C190        C  0.86705432  0.27749020  0.16918960     0.07600
C191        C  0.84859816  0.26080844  0.15298105    -0.05500
H192        H  0.89697295  0.26358997  0.20338618     0.08300
H193        H  0.83048142  0.26837777  0.14035954     0.09500
Cu194      Cu  0.87989249  0.19559564  0.20523030     0.44200
Cu195      Cu  0.82478073  0.20065557  0.14988872     0.42000
Cu196      Cu  0.82084590  0.14408339  0.20078102     0.43900
N197        N  0.87014378  0.16606546  0.23745162    -0.34200
N198        N  0.84802918  0.14808931  0.23593844    -0.28400
C199        C  0.84236059  0.13781825  0.26245084    -0.04500
C200        C  0.86192050  0.14964620  0.28155870     0.07700
C201        C  0.87943229  0.16723060  0.26499150     0.01500
H202        H  0.82363631  0.12495195  0.26784476     0.09100
H203        H  0.89515800  0.18253619  0.27293915     0.08200
N204        N  0.78822724  0.15240453  0.17160431    -0.35600
N205        N  0.78936773  0.17429374  0.15341793    -0.27800
C206        C  0.76269581  0.17998127  0.14372019    -0.03000
C207        C  0.74401498  0.16030475  0.15595605     0.05600
C208        C  0.76085452  0.14307986  0.17344339     0.03700
H209        H  0.75692830  0.19884957  0.13123065     0.08800
H210        H  0.75320630  0.12774514  0.18931686     0.07600
C211        C  0.83951256  0.82460132  0.48864729     0.02800
C212        C  0.82041247  0.84254904  0.50441620     0.02800
C213        C  0.82092555  0.84230353  0.53501516     0.02800
C214        C  0.84062896  0.82415009  0.54975055     0.02800
C215        C  0.85861122  0.80506953  0.53408108     0.02800
C216        C  0.85790738  0.80501301  0.50346484     0.02800
N217        N  0.84633010  0.77735137  0.16043698    -0.26800
N218        N  0.86377509  0.77622887  0.18293122    -0.34600
C219        C  0.87089266  0.74870222  0.18807112     0.01600
C220        C  0.85757765  0.73163247  0.16765797     0.07600
C221        C  0.84228891  0.75044788  0.15026320    -0.05500
H222        H  0.88215219  0.74138808  0.20718604     0.08300
H223        H  0.82622918  0.74464957  0.13431154     0.09500
Cu224      Cu  0.86933569  0.80995289  0.21121009     0.44200
Cu225      Cu  0.82074462  0.81306059  0.15301766     0.42000
Cu226      Cu  0.82013326  0.86941632  0.20955397     0.43900
N227        N  0.86439542  0.83844215  0.24487073    -0.34200
N228        N  0.84679987  0.86082023  0.24455851    -0.28400
C229        C  0.84386344  0.87074598  0.27177254    -0.04500
C230        C  0.86001806  0.85334489  0.28988867     0.07700
C231        C  0.87272431  0.83323724  0.27209364     0.01500
H232        H  0.82813801  0.88666926  0.27833155     0.09100
H233        H  0.88448047  0.81424576  0.27880517     0.08200
N234        N  0.78731303  0.86270983  0.17972132    -0.35600
N235        N  0.78758007  0.84206588  0.15995929    -0.27800
C236        C  0.76057058  0.83766224  0.15055596    -0.03000
C237        C  0.74240757  0.85642137  0.16475295     0.05600
C238        C  0.76007058  0.87221161  0.18289938     0.03700
H239        H  0.75413133  0.81961398  0.13718670     0.08800
H240        H  0.75306249  0.88621943  0.20023430     0.07600
N241        N  0.86343910  0.84248952  0.79029544    -0.26800
N242        N  0.84085517  0.85974748  0.79199554    -0.34600
C243        C  0.83547271  0.87070982  0.76565313     0.01600
C244        C  0.85605192  0.86036633  0.74674177     0.07600
C245        C  0.87353561  0.84273332  0.76311954    -0.05500
H246        H  0.81628099  0.88273383  0.76007614     0.08300
H247        H  0.88943300  0.82774731  0.75495259     0.09500
Cu248      Cu  0.81388657  0.86151296  0.82757644     0.44200
Cu249      Cu  0.87201163  0.81057463  0.82009745     0.42000
Cu250      Cu  0.82098653  0.80253592  0.87794144     0.43900
N251        N  0.78344989  0.85185437  0.85876607    -0.34200
N252        N  0.78552859  0.82944258  0.87627943    -0.28400
C253        C  0.75938295  0.82365232  0.88737603    -0.04500
C254        C  0.74006201  0.84359130  0.87661653     0.07700
C255        C  0.75609150  0.86135918  0.85885811     0.01500
H256        H  0.75425957  0.80455802  0.89979674     0.09100
H257        H  0.74770949  0.87721486  0.84394051     0.08200
N258        N  0.85032311  0.77103195  0.86664492    -0.35600
N259        N  0.86790127  0.77338644  0.84429258    -0.27800
C260        C  0.87766357  0.74705182  0.83715686    -0.03000
C261        C  0.86597806  0.72734941  0.85625609     0.05600
C262        C  0.84904862  0.74328305  0.87484047     0.03700
H263        H  0.89024924  0.74234114  0.81804498     0.08800
H264        H  0.83405971  0.73488193  0.89064689     0.07600
O265        O  0.98333006  0.61238846  0.67342712    -0.72400
O266        O  0.04384599  0.65210742  0.62475148    -0.73400
O267        O  0.04388941  0.60779693  0.66928326    -0.62000
O268        O  0.98307810  0.65581306  0.62988410    -0.70400
O269        O  0.98932805  0.68983902  0.66306238    -0.70000
O270        O  0.04978228  0.64191284  0.70246319    -0.61200
O271        O  0.04997394  0.68508303  0.65899100    -0.73800
O272        O  0.98917575  0.64557081  0.70748902    -0.72500
Cu273      Cu  0.01343437  0.63084500  0.64813426     1.04600
Cu274      Cu  0.01964534  0.66678300  0.68416222     1.04300
C275        C  0.97727948  0.62235426  0.69843534     0.93800
C276        C  0.05600571  0.67510985  0.63400222     0.92900
C277        C  0.05579311  0.61702582  0.69244167     0.85100
C278        C  0.97719068  0.68073571  0.63999699     0.91300
O279        O  0.63386953  0.03439770  0.67459560    -0.72400
O280        O  0.67758069  0.96977233  0.63552164    -0.73400
O281        O  0.63230767  0.97353089  0.67798247    -0.62000
O282        O  0.67906732  0.03056080  0.63195389    -0.70400
O283        O  0.71024736  0.03411938  0.66819103    -0.70000
O284        O  0.66671301  0.97188427  0.71129095    -0.61200
O285        O  0.71170777  0.97341065  0.66895934    -0.73800
O286        O  0.66519380  0.03284201  0.71081086    -0.72500
Cu287      Cu  0.65452720  0.00202928  0.65377196     1.04600
Cu288      Cu  0.68958403  0.00313074  0.69103173     1.04300
C289        C  0.64212480  0.04282616  0.69957135     0.93800
C290        C  0.70218383  0.96240285  0.64554848     0.92900
C291        C  0.64207463  0.96383288  0.70188251     0.85100
C292        C  0.70217463  0.04103024  0.64270941     0.91300
O293        O  0.67730395  0.62055384  0.04363758    -0.72400
O294        O  0.63184041  0.66311251  0.98277707    -0.73400
O295        O  0.67500879  0.61829942  0.98267151    -0.62000
O296        O  0.63506328  0.66483875  0.04407093    -0.70400
O297        O  0.67018527  0.69738855  0.04196138    -0.70000
O298        O  0.70782102  0.65286399  0.97761829    -0.61200
O299        O  0.66516904  0.69750605  0.98181037    -0.73800
O300        O  0.71295087  0.65215501  0.03857572    -0.72500
Cu301      Cu  0.65357906  0.64054426  0.01328767     1.04600
Cu302      Cu  0.69027660  0.67610084  0.00989033     1.04300
C303        C  0.70265524  0.62921847  0.04999066     0.93800
C304        C  0.64069832  0.68768028  0.97384242     0.92900
C305        C  0.69796109  0.62803506  0.97090665     0.85100
C306        C  0.64620511  0.68863274  0.05236381     0.91300
O307        O  0.31711544  0.97386209  0.67036771    -0.72400
O308        O  0.36474312  0.03838134  0.70397456    -0.73400
O309        O  0.31889844  0.03360230  0.66299582    -0.62000
O310        O  0.36365100  0.97771991  0.71196221    -0.70400
O311        O  0.39448665  0.97039994  0.67602575    -0.70000
O312        O  0.35246194  0.03043798  0.62891453    -0.61200
O313        O  0.39836866  0.03102706  0.67060456    -0.73800
O314        O  0.34892780  0.96947691  0.63476060    -0.72500
Cu315      Cu  0.34003568  0.00603285  0.68861830     1.04600
Cu316      Cu  0.37467412  0.00017647  0.65132096     1.04300
C317        C  0.32505695  0.96238449  0.64656355     0.93800
C318        C  0.38935368  0.04425001  0.69305234     0.92900
C319        C  0.32851982  0.04057239  0.63813450     0.85100
C320        C  0.38616258  0.96539006  0.70184550     0.91300
O321        O  0.98437910  0.34816404  0.70665571    -0.72400
O322        O  0.04723691  0.30745385  0.66197957    -0.73400
O323        O  0.04497326  0.35075613  0.70631736    -0.62000
O324        O  0.98642605  0.30477977  0.66243962    -0.70400
O325        O  0.98194232  0.34037785  0.63069965    -0.70000
O326        O  0.04643610  0.38330423  0.67117331    -0.61200
O327        O  0.04286529  0.33967396  0.62678581    -0.73800
O328        O  0.98546902  0.38395272  0.67480089    -0.72500
Cu329      Cu  0.01582333  0.32660140  0.68550432     1.04600
Cu330      Cu  0.01413410  0.36304595  0.64965534     1.04300
C331        C  0.97602910  0.37305757  0.69831813     0.93800
C332        C  0.05391280  0.31650288  0.63675807     0.92900
C333        C  0.05468877  0.37434536  0.69596736     0.85100
C334        C  0.97505614  0.31518599  0.63960682     0.91300
O335        O  0.35781876  0.69830424  0.98510998    -0.72400
O336        O  0.31907702  0.65168950  0.04772828    -0.73400
O337        O  0.36129459  0.69674932  0.04555408    -0.62000
O338        O  0.31487214  0.65289666  0.98686227    -0.70400
O339        O  0.35008176  0.62086495  0.98220878    -0.70000
O340        O  0.39502741  0.66285955  0.04423376    -0.61200
O341        O  0.35249164  0.61775219  0.04290300    -0.73800
O342        O  0.39262380  0.66557109  0.98281999    -0.72500
Cu343      Cu  0.33703943  0.67604568  0.01637029     1.04600
Cu344      Cu  0.37380852  0.64065776  0.01294404     1.04300
C345        C  0.38189109  0.68964014  0.97485173     0.93800
C346        C  0.32924790  0.62697799  0.05437601     0.92900
C347        C  0.38558610  0.68690571  0.05390659     0.85100
C348        C  0.32478817  0.62967634  0.97578958     0.91300
O349        O  0.66364211  0.30462434  0.98494191    -0.72400
O350        O  0.71019541  0.34642200  0.04565310    -0.73400
O351        O  0.66508861  0.30368594  0.04551144    -0.62000
O352        O  0.70885557  0.34705964  0.98502724    -0.70400
O353        O  0.67638083  0.38217884  0.98589485    -0.70000
O354        O  0.63179316  0.33801701  0.04665508    -0.61200
O355        O  0.67683649  0.38062383  0.04749238    -0.73800
O356        O  0.63144919  0.34000270  0.98490799    -0.72500
Cu357      Cu  0.68805040  0.32426630  0.01525838     1.04600
Cu358      Cu  0.65293386  0.36144048  0.01632240     1.04300
C359        C  0.64017882  0.31559482  0.97556240     0.93800
C360        C  0.70108975  0.37042487  0.05570728     0.92900
C361        C  0.64122620  0.31349913  0.05504410     0.85100
C362        C  0.70000337  0.37164420  0.97639090     0.91300
O363        O  0.62658987  0.96849770  0.36203485    -0.72400
O364        O  0.67612186  0.02915376  0.39999482    -0.73400
O365        O  0.63183070  0.02914809  0.35704239    -0.62000
O366        O  0.67150654  0.96878178  0.40557283    -0.70400
O367        O  0.70420907  0.96238009  0.37108293    -0.70000
O368        O  0.66464602  0.02258680  0.32276678    -0.61200
O369        O  0.70940008  0.02263988  0.36613323    -0.73800
O370        O  0.66018351  0.96177612  0.32850560    -0.72500
Cu371      Cu  0.65031458  0.99903643  0.38234618     1.04600
Cu372      Cu  0.68571585  0.99221529  0.34589421     1.04300
C373        C  0.63545937  0.95591313  0.33911799     0.93800
C374        C  0.70095330  0.03476566  0.38945896     0.92900
C375        C  0.64178553  0.03498001  0.33198208     0.85100
C376        C  0.69448119  0.95675341  0.39624330     0.91300
O377        O  0.04450070  0.61947020  0.35288519    -0.72400
O378        O  0.98520243  0.66425272  0.39843884    -0.73400
O379        O  0.98322206  0.62049486  0.35469196    -0.62000
O380        O  0.04671957  0.66305775  0.39670750    -0.70400
O381        O  0.04545391  0.69712078  0.36302486    -0.70000
O382        O  0.98370516  0.65396366  0.32039561    -0.61200
O383        O  0.98515074  0.69780079  0.36422460    -0.73800
O384        O  0.04398558  0.65345837  0.31910828    -0.72500
Cu385      Cu  0.01492140  0.64060551  0.37691192     1.04600
Cu386      Cu  0.01456372  0.67673171  0.34055705     1.04300
C387        C  0.05294329  0.62916705  0.32844542     0.93800
C388        C  0.97640136  0.68847549  0.38866670     0.92900
C389        C  0.97418860  0.63015006  0.33045501     0.85100
C390        C  0.05541706  0.68726386  0.38677615     0.91300
O391        O  0.97966195  0.31473494  0.36779797    -0.72400
O392        O  0.04080029  0.35483846  0.32127409    -0.73400
O393        O  0.04036176  0.30975174  0.36412646    -0.62000
O394        O  0.98030892  0.35904001  0.32546957    -0.70400
O395        O  0.98600108  0.39226432  0.35956885    -0.70000
O396        O  0.04576711  0.34253056  0.39867265    -0.61200
O397        O  0.04689303  0.38685782  0.35646842    -0.73800
O398        O  0.98535221  0.34705013  0.40279162    -0.72500
Cu399      Cu  0.01016596  0.33344987  0.34345853     1.04600
Cu400      Cu  0.01608950  0.36836863  0.38057661     1.04300
C401        C  0.97347949  0.32420099  0.39292956     0.93800
C402        C  0.05312306  0.37733465  0.33136825     0.92900
C403        C  0.05205318  0.31805639  0.38774846     0.85100
C404        C  0.97412919  0.38362422  0.33615681     0.91300
O405        O  0.31839050  0.02816273  0.35854292    -0.72400
O406        O  0.36232763  0.96648598  0.31735453    -0.73400
O407        O  0.31699228  0.96792351  0.35950667    -0.62000
O408        O  0.36354658  0.02723599  0.31692271    -0.70400
O409        O  0.39689866  0.02567882  0.35137184    -0.70000
O410        O  0.34968979  0.96754442  0.39458623    -0.61200
O411        O  0.39460017  0.96465108  0.35273029    -0.73800
O412        O  0.35140969  0.02892234  0.39326723    -0.72500
Cu413      Cu  0.33923149  0.99742627  0.33685406     1.04600
Cu414      Cu  0.37430529  0.99671863  0.37427118     1.04300
C415        C  0.32764166  0.03798783  0.38256242     0.93800
C416        C  0.38544865  0.95609322  0.32812926     0.92900
C417        C  0.32570583  0.95900237  0.38410576     0.85100
C418        C  0.38778626  0.03528159  0.32721680     0.91300
O419        O  0.31741462  0.34666511  0.98808762    -0.72400
O420        O  0.36255349  0.30074934  0.04649186    -0.73400
O421        O  0.31837016  0.34431096  0.04886171    -0.62000
O422        O  0.36168035  0.30303493  0.98591510    -0.70400
O423        O  0.39551481  0.33693292  0.98660739    -0.70000
O424        O  0.35177205  0.37862157  0.04945785    -0.61200
O425        O  0.39572290  0.33525962  0.04810329    -0.73800
O426        O  0.35161680  0.38019337  0.98765638    -0.72500
Cu427      Cu  0.33883452  0.32253737  0.01730588     1.04600
Cu428      Cu  0.37481915  0.35897064  0.01799754     1.04300
C429        C  0.32722177  0.37073833  0.97890852     0.93800
C430        C  0.38649286  0.31050251  0.05605820     0.92900
C431        C  0.32791441  0.36826394  0.05864973     0.85100
C432        C  0.38577122  0.31302258  0.97693862     0.91300
C433        C  0.84500774  0.84915696  0.41683340     0.30300
C434        C  0.84724969  0.86979028  0.39474654    -0.36100
C435        C  0.85048145  0.85886443  0.36667746     0.16300
C436        C  0.85188227  0.82968260  0.36096927     0.22100
C437        C  0.84889761  0.80911510  0.38293484    -0.34200
C438        C  0.84518502  0.82003844  0.41085514     0.16200
O439        O  0.84291260  0.85445851  0.44468873    -0.26200
C440        C  0.84147466  0.82840558  0.45674601     0.06000
C441        C  0.84210986  0.80618002  0.43654660    -0.31100
O442        O  0.85595145  0.82415749  0.33342203    -0.22900
C443        C  0.85670922  0.85006188  0.32118583    -0.02900
C444        C  0.85320629  0.87255155  0.34072042    -0.17300
H445        H  0.84676951  0.89267394  0.39916859     0.20700
H446        H  0.84965648  0.78623830  0.37858484     0.19000
H447        H  0.84104187  0.78318842  0.44024639     0.19000
H448        H  0.85302474  0.89548059  0.33643302     0.14800
C449        C  0.83629662  0.84643016  0.67553493     0.30300
C450        C  0.81831481  0.83604707  0.65349112    -0.36100
C451        C  0.83148721  0.83183817  0.62657681     0.16300
C452        C  0.86011955  0.83817006  0.62154427     0.22100
C453        C  0.87822092  0.84801676  0.64367342    -0.34200
C454        C  0.86521421  0.85167075  0.67071392     0.16200
O455        O  0.82885937  0.85069925  0.70265657    -0.26200
C456        C  0.85338114  0.85849905  0.71533582     0.06000
C457        C  0.87673778  0.85936798  0.69659701    -0.31100
O458        O  0.86733056  0.83500357  0.59426290    -0.22900
C459        C  0.84320601  0.82600759  0.58165166    -0.02900
C460        C  0.82026870  0.82311792  0.60086380    -0.17300
H461        H  0.79575481  0.83149309  0.65708845     0.20700
H462        H  0.90078054  0.85260430  0.64003026     0.19000
H463        H  0.89908701  0.86381253  0.70162186     0.19000
H464        H  0.79814286  0.81746328  0.59611444     0.14800
C465        C  0.76814571  0.87343531  0.45862475     0.30300
C466        C  0.74783469  0.87380477  0.43615508    -0.36100
C467        C  0.73468291  0.90045468  0.43063623     0.16300
C468        C  0.74085654  0.92497212  0.44639393     0.22100
C469        C  0.76144748  0.92467500  0.46862995    -0.34200
C470        C  0.77482855  0.89809122  0.47390085     0.16200
O471        O  0.78306005  0.85089148  0.46732544    -0.26200
C472        C  0.79960802  0.86116577  0.48846636     0.06000
C473        C  0.79570067  0.89058801  0.49316159    -0.31100
O474        O  0.72649758  0.94768021  0.43714666    -0.22900
C475        C  0.71103216  0.93760247  0.41513743    -0.02900
C476        C  0.71540453  0.90844132  0.40989406    -0.17300
H477        H  0.74287563  0.85474044  0.42366810     0.20700
H478        H  0.76689541  0.94387041  0.48070738     0.19000
H479        H  0.80657666  0.90435938  0.50857110     0.19000
H480        H  0.70629850  0.89531535  0.39285327     0.14800
C481        C  0.92758632  0.71944692  0.43772354     0.30300
C482        C  0.90724605  0.72022509  0.46020991    -0.36100
C483        C  0.89771871  0.74773794  0.46853940     0.16300
C484        C  0.90779643  0.77275579  0.45596259     0.22100
C485        C  0.92762322  0.77195978  0.43310311    -0.34200
C486        C  0.93681434  0.74447774  0.42448211     0.16200
O487        O  0.93998950  0.69619600  0.42687436    -0.26200
C488        C  0.95693515  0.70652057  0.40606143     0.06000
C489        C  0.95567463  0.73636761  0.40352245    -0.31100
O490        O  0.89599680  0.79610119  0.46710948    -0.22900
C491        C  0.87784666  0.78597638  0.48697023    -0.02900
C492        C  0.87781336  0.75597043  0.48851346    -0.17300
H493        H  0.89940930  0.70079945  0.47047323     0.20700
H494        H  0.93525417  0.79138854  0.42269334     0.19000
H495        H  0.96766096  0.75012882  0.38894399     0.19000
H496        H  0.86424658  0.74214525  0.50151079     0.14800
C497        C  0.89466342  0.74798366  0.56900180     0.30300
C498        C  0.89923791  0.71942974  0.57801541    -0.36100
C499        C  0.92312636  0.71488177  0.59608286     0.16300
C500        C  0.94091369  0.73700889  0.60509035     0.22100
C501        C  0.93675040  0.76540599  0.59548716    -0.34200
C502        C  0.91323109  0.76983147  0.57697539     0.16200
O503        O  0.87319770  0.75730511  0.55282107    -0.26200
C504        C  0.87838903  0.78538576  0.54990192     0.06000
C505        C  0.90325797  0.79428595  0.56416045    -0.31100
O506        O  0.96160617  0.72804306  0.62242500    -0.22900
C507        C  0.95733092  0.69973080  0.62421988    -0.02900
C508        C  0.93383602  0.69025816  0.60808681    -0.17300
H509        H  0.88513692  0.70203788  0.57148650     0.20700
H510        H  0.95082885  0.78281418  0.60201304     0.19000
H511        H  0.91225565  0.81577417  0.56542684     0.19000
H512        H  0.92590454  0.66845613  0.60557261     0.14800
C513        C  0.78747130  0.89094623  0.58293475     0.30300
C514        C  0.78619182  0.91077983  0.60574572    -0.36100
C515        C  0.75860911  0.92068628  0.61309497     0.16300
C516        C  0.73396991  0.91205316  0.59875339     0.22100
C517        C  0.73522712  0.89179194  0.57623461    -0.34200
C518        C  0.76281134  0.88156484  0.56914637     0.16200
O519        O  0.81101667  0.87899551  0.57248167    -0.26200
C520        C  0.80138054  0.86144435  0.55186314     0.06000
C521        C  0.77147756  0.86198198  0.54902811    -0.31100
O522        O  0.71060739  0.92515875  0.60841864    -0.22900
C523        C  0.72043126  0.94202127  0.62952210    -0.02900
C524        C  0.75009217  0.94000203  0.63344739    -0.17300
H525        H  0.80534629  0.91803621  0.61690311     0.20700
H526        H  0.71611156  0.88463375  0.56495305     0.19000
H527        H  0.75814919  0.84967137  0.53432819     0.19000
H528        H  0.76352470  0.95184784  0.64843934     0.14800
C529        C  0.83698641  0.16154164  0.40619120     0.30300
C530        C  0.82245021  0.15743634  0.37998991    -0.36100
C531        C  0.83992473  0.15405113  0.35554077     0.16300
C532        C  0.86965482  0.15522184  0.35662872     0.22100
C533        C  0.88421157  0.15868765  0.38297844    -0.34200
C534        C  0.86670588  0.16154583  0.40752931     0.16200
O535        O  0.82489307  0.16559380  0.43160779    -0.26200
C536        C  0.84711660  0.16782812  0.44963947     0.06000
C537        C  0.87368675  0.16518261  0.43583008    -0.31100
O538        O  0.88157964  0.15338887  0.33080403    -0.22900
C539        C  0.85916892  0.15035462  0.31312758    -0.02900
C540        C  0.83276298  0.15045093  0.32732613    -0.17300
H541        H  0.79917251  0.15713193  0.37872826     0.20700
H542        H  0.90748564  0.15941064  0.38421705     0.19000
H543        H  0.89499647  0.16605638  0.44530694     0.19000
H544        H  0.81138631  0.14938809  0.31803153     0.14800
C545        C  0.78940081  0.10377386  0.45113169     0.30300
C546        C  0.78742830  0.08331245  0.42887465    -0.36100
C547        C  0.75948677  0.07419190  0.42162830     0.16300
C548        C  0.73518230  0.08410197  0.43566241     0.22100
C549        C  0.73715339  0.10473880  0.45778521    -0.34200
C550        C  0.76506764  0.11421333  0.46469349     0.16200
O551        O  0.81330083  0.11570616  0.46092907    -0.26200
C552        C  0.80419704  0.13429012  0.48086722     0.06000
C553        C  0.77432968  0.13431487  0.48404195    -0.31100
O554        O  0.71130136  0.07199903  0.42593904    -0.22900
C555        C  0.72038723  0.05445711  0.40507456    -0.02900
C556        C  0.75016451  0.05498441  0.40140601    -0.17300
H557        H  0.80630869  0.07525772  0.41784633     0.20700
H558        H  0.71827788  0.11292657  0.46871987     0.19000
H559        H  0.76138684  0.14751469  0.49827500     0.19000
H560        H  0.76308636  0.04236919  0.38662723     0.14800
C561        C  0.91947441  0.28108036  0.42325186     0.30300
C562        C  0.89358872  0.26538797  0.42400460    -0.36100
C563        C  0.88984888  0.24710809  0.44786788     0.16300
C564        C  0.91038182  0.24394466  0.46914309     0.22100
C565        C  0.93592141  0.26019971  0.46882546    -0.34200
C566        C  0.93939197  0.27899164  0.44532097     0.16200
O567        O  0.92831198  0.29801302  0.40210545    -0.26200
C568        C  0.95380206  0.30753625  0.41120883     0.06000
C569        C  0.96174299  0.29657669  0.43798512    -0.31100
O570        O  0.90304078  0.22453207  0.48861514    -0.22900
C571        C  0.87719040  0.21529491  0.48005678    -0.02900
C572        C  0.86778321  0.22912000  0.45499033    -0.17300
H573        H  0.87773395  0.26692638  0.40696100     0.20700
H574        H  0.95210376  0.25804570  0.48548753     0.19000
H575        H  0.98187212  0.29965680  0.44939389     0.19000
H576        H  0.84768335  0.22621911  0.44350182     0.14800
C577        C  0.77419480  0.12397371  0.57662343     0.30300
C578        C  0.75502262  0.12377189  0.60015919    -0.36100
C579        C  0.74317654  0.09686440  0.60752234     0.16300
C580        C  0.74960582  0.07195138  0.59254680     0.22100
C581        C  0.76904382  0.07210971  0.56925810    -0.34200
C582        C  0.78099058  0.09896758  0.56203022     0.16200
O583        O  0.78781985  0.14667187  0.56616352    -0.26200
C584        C  0.80354168  0.13616078  0.54447903     0.06000
C585        C  0.80035722  0.10646621  0.54116373    -0.31100
O586        O  0.73582106  0.04925837  0.60279472    -0.22900
C587        C  0.72056495  0.05966331  0.62479601    -0.02900
C588        C  0.72435156  0.08912806  0.62889884    -0.17300
H589        H  0.74976113  0.14320595  0.61191457     0.20700
H590        H  0.77445780  0.05266438  0.55759887     0.19000
H591        H  0.81101027  0.09244900  0.52584876     0.19000
H592        H  0.71452085  0.10279065  0.64507299     0.14800
C593        C  0.93832068  0.25984953  0.60373888     0.30300
C594        C  0.93334097  0.23128054  0.59517010    -0.36100
C595        C  0.91258990  0.22730271  0.57354422     0.16300
C596        C  0.89721973  0.24978016  0.56158600     0.22100
C597        C  0.90250379  0.27847743  0.56988163    -0.34200
C598        C  0.92374188  0.28253507  0.59117289     0.16200
O599        O  0.95731090  0.26841047  0.62308740    -0.26200
C600        C  0.95526700  0.29700356  0.62272901     0.06000
C601        C  0.93475697  0.30708125  0.60323323    -0.31100
O602        O  0.87757230  0.24081949  0.54296106    -0.22900
C603        C  0.88059823  0.21225111  0.54290648    -0.02900
C604        C  0.90249326  0.20273460  0.56109643    -0.17300
H605        H  0.94489106  0.21341502  0.60465173     0.20700
H606        H  0.89087454  0.29632742  0.56046151     0.19000
H607        H  0.92918281  0.32918850  0.59835371     0.19000
H608        H  0.90888161  0.18077118  0.56560170     0.14800
C609        C  0.85902480  0.40196766  0.19362818     0.30300
C610        C  0.88014673  0.38064387  0.19059594    -0.36100
C611        C  0.86990204  0.35263857  0.18606383     0.16300
C612        C  0.84086804  0.34620077  0.18440079     0.22100
C613        C  0.81973477  0.36738231  0.18850396    -0.34200
C614        C  0.83002067  0.39535543  0.19327387     0.16200
O615        O  0.86379640  0.42979962  0.19553430    -0.26200
C616        C  0.83756183  0.44127431  0.19672746     0.06000
C617        C  0.81565235  0.42072844  0.19610894    -0.31100
O618        O  0.83615888  0.31901486  0.17792076    -0.22900
C619        C  0.86247462  0.30788965  0.17585709    -0.02900
C620        C  0.88435793  0.32763877  0.18099947    -0.17300
H621        H  0.90290356  0.38569367  0.19077473     0.20700
H622        H  0.79697504  0.36256865  0.18712724     0.19000
H623        H  0.79258428  0.42404873  0.19646906     0.19000
H624        H  0.90741287  0.32421407  0.18025201     0.14800
C625        C  0.83813424  0.60566028  0.16972835     0.30300
C626        C  0.84256247  0.62775707  0.14951813    -0.36100
C627        C  0.84551328  0.65557467  0.16095412     0.16300
C628        C  0.84464821  0.66105861  0.19026696     0.22100
C629        C  0.83942071  0.63907412  0.21037446    -0.34200
C630        C  0.83595126  0.61138251  0.19888315     0.16200
O631        O  0.83661104  0.57793772  0.16401425    -0.26200
C632        C  0.83295251  0.56568860  0.18974408     0.06000
C633        C  0.83177778  0.58560117  0.21222624    -0.31100
O634        O  0.84926484  0.68836228  0.19634036    -0.22900
C635        C  0.85265315  0.70061369  0.17060531    -0.02900
C636        C  0.85030950  0.68138611  0.14771229    -0.17300
H637        H  0.84410696  0.62348557  0.12662246     0.20700
H638        H  0.83857930  0.64319903  0.23332812     0.19000
H639        H  0.82959270  0.58153506  0.23513034     0.19000
H640        H  0.85233684  0.68574344  0.12484475     0.14800
C641        C  0.73128662  0.41851306  0.10618805     0.30300
C642        C  0.73136959  0.44092045  0.12661065    -0.36100
C643        C  0.75851761  0.44969743  0.13679948     0.16300
C644        C  0.78394380  0.43755401  0.12736137     0.22100
C645        C  0.78385587  0.41478157  0.10727827    -0.34200
C646        C  0.75664197  0.40572558  0.09733653     0.16200
O647        O  0.70838000  0.40756311  0.09319222    -0.26200
C648        C  0.71908166  0.38708415  0.07612349     0.06000
C649        C  0.74899445  0.38488672  0.07793940    -0.31100
O650        O  0.80684298  0.44922119  0.13978091    -0.22900
C651        C  0.79594601  0.46905053  0.15757578    -0.02900
C652        C  0.76593652  0.46996370  0.15676515    -0.17300
H653        H  0.71159656  0.45091438  0.13399532     0.20700
H654        H  0.80364634  0.40478383  0.09993196     0.19000
H655        H  0.76311115  0.37072896  0.06586980     0.19000
H656        H  0.75153487  0.48287007  0.16977775     0.14800
C657        C  0.93899040  0.43361392  0.29172646     0.30300
C658        C  0.93707242  0.45596992  0.27133317    -0.36100
C659        C  0.90957563  0.46109520  0.25973540     0.16300
C660        C  0.88554852  0.44550717  0.26778998     0.22100
C661        C  0.88751129  0.42293896  0.28795252    -0.34200
C662        C  0.91505313  0.41763719  0.29940144     0.16200
O663        O  0.96272960  0.42449763  0.30453305    -0.26200
C664        C  0.95389669  0.40237409  0.32058859     0.06000
C665        C  0.92451459  0.39694320  0.31808356    -0.31100
O666        O  0.86206855  0.45374327  0.25394152    -0.22900
C667        C  0.87107813  0.47496269  0.23671370    -0.02900
C668        C  0.90061205  0.48013890  0.23921754    -0.17300
H669        H  0.95577109  0.46821952  0.26466305     0.20700
H670        H  0.86895463  0.41014641  0.29396994     0.19000
H671        H  0.91214268  0.37981123  0.32801211     0.19000
H672        H  0.91369474  0.49531346  0.22723684     0.14800
C673        C  0.78233913  0.55705688  0.11938764     0.30300
C674        C  0.78236346  0.57397996  0.09423233    -0.36100
C675        C  0.75639165  0.58802007  0.08763100     0.16300
C676        C  0.73182255  0.58500905  0.10419482     0.22100
C677        C  0.73197357  0.56854238  0.12968939    -0.34200
C678        C  0.75817056  0.55506211  0.13665806     0.16200
O679        O  0.80455390  0.54289706  0.13010384    -0.26200
C680        C  0.79462660  0.53190819  0.15474808     0.06000
C681        C  0.76600988  0.53912581  0.16012210    -0.31100
O682        O  0.70963388  0.59920085  0.09336641    -0.22900
C683        C  0.72035790  0.61204690  0.06997270    -0.02900
C684        C  0.74936314  0.60598848  0.06542445    -0.17300
H685        H  0.80139240  0.57632954  0.08095367     0.20700
H686        H  0.71309821  0.56659438  0.14325710     0.19000
H687        H  0.75319741  0.53413739  0.17900406     0.19000
H688        H  0.76296360  0.61304457  0.04779269     0.14800
C689        C  0.89171318  0.55417428  0.26838333     0.30300
C690        C  0.90048042  0.56022611  0.29681611    -0.36100
C691        C  0.92176059  0.58158984  0.29991424     0.16300
C692        C  0.93333817  0.59617110  0.27664082     0.22100
C693        C  0.92496133  0.58975667  0.24822378    -0.34200
C694        C  0.90393458  0.56823396  0.24513443     0.16200
O695        O  0.87171275  0.53549037  0.26048730    -0.26200
C696        C  0.87113505  0.53759315  0.23177905     0.06000
C697        C  0.89113188  0.55730415  0.22104951    -0.31100
O698        O  0.95262461  0.61556424  0.28443635    -0.22900
C699        C  0.95371562  0.61322758  0.31306773    -0.02900
C700        C  0.93509582  0.59230495  0.32392955    -0.17300
H701        H  0.89129239  0.54916042  0.31519380     0.20700
H702        H  0.93411999  0.60082638  0.22983925     0.19000
H703        H  0.89519299  0.56307348  0.19877370     0.19000
H704        H  0.93193286  0.58593442  0.34619073     0.14800
C705        C  0.10959084  0.27740708  0.60327973     0.30300
C706        C  0.13749361  0.26619282  0.59955952    -0.36100
C707        C  0.14131416  0.24740317  0.57603123     0.16300
C708        C  0.11917868  0.23980243  0.55764794     0.22100
C709        C  0.09142123  0.25141448  0.56102965    -0.34200
C710        C  0.08767937  0.27051893  0.58429765     0.16200
O711        O  0.10090026  0.29464910  0.62432159    -0.26200
C712        C  0.07320108  0.29925642  0.61836518     0.06000
C713        C  0.06385084  0.28490465  0.59369865    -0.31100
O714        O  0.12731132  0.22103294  0.53777587    -0.22900
C715        C  0.15518402  0.21665942  0.54324410    -0.02900
C716        C  0.16504391  0.23284448  0.56668698    -0.17300
H717        H  0.15492141  0.27150356  0.61413193     0.20700
H718        H  0.07391582  0.24576525  0.54668793     0.19000
H719        H  0.04237603  0.28448121  0.58458442     0.19000
H720        H  0.18653629  0.23348089  0.57574668     0.14800
C721        C  0.27455811  0.07645551  0.59944709     0.30300
C722        C  0.24628905  0.08194340  0.59011653    -0.36100
C723        C  0.24320328  0.10358651  0.56919863     0.16300
C724        C  0.26623306  0.11935639  0.55886893     0.22100
C725        C  0.29457962  0.11348805  0.56776589    -0.34200
C726        C  0.29776808  0.09129375  0.58812070     0.16200
O727        O  0.28234399  0.05722781  0.61888738    -0.26200
C728        C  0.31094852  0.05935786  0.61965986     0.06000
C729        C  0.32181789  0.08007136  0.60084391    -0.31100
O730        O  0.25814899  0.14013895  0.54123246    -0.22900
C731        C  0.22964144  0.13725898  0.53961794    -0.02900
C732        C  0.21917672  0.11459398  0.55636987    -0.17300
H733        H  0.22799609  0.07027738  0.59867714     0.20700
H734        H  0.31280042  0.12553827  0.55959522     0.19000
H735        H  0.34407741  0.08611118  0.59731652     0.19000
H736        H  0.19695969  0.10840808  0.55992429     0.14800
C737        C  0.24336212  0.11058856  0.44525909     0.30300
C738        C  0.24441108  0.09069214  0.42247783    -0.36100
C739        C  0.27194257  0.08092856  0.41468258     0.16300
C740        C  0.29677582  0.08975093  0.42856367     0.22100
C741        C  0.29577255  0.11038441  0.45077123    -0.34200
C742        C  0.26821048  0.12042543  0.45832494     0.16200
O743        O  0.21987807  0.12212746  0.45637441    -0.26200
C744        C  0.22970702  0.13990305  0.47672980     0.06000
C745        C  0.25971685  0.14009220  0.47842827    -0.31100
O746        O  0.31998102  0.07623780  0.41899906    -0.22900
C747        C  0.30984242  0.05897207  0.39836663    -0.02900
C748        C  0.28017438  0.06121166  0.39460586    -0.17300
H749        H  0.22510184  0.08309632  0.41181822     0.20700
H750        H  0.31503290  0.11774926  0.46168757     0.19000
H751        H  0.27340835  0.15339106  0.49184105     0.19000
H752        H  0.26651655  0.04906931  0.38006065     0.14800
C753        C  0.10136986  0.28445672  0.43434800     0.30300
C754        C  0.12074946  0.28248372  0.45761661    -0.36100
C755        C  0.13145794  0.25483051  0.46364770     0.16300
C756        C  0.12328234  0.23080140  0.44816561     0.22100
C757        C  0.10428893  0.23279881  0.42465766    -0.34200
C758        C  0.09390553  0.26046911  0.41835542     0.16200
O759        O  0.08810865  0.30798051  0.42540588    -0.26200
C760        C  0.07224732  0.29901019  0.40315349     0.06000
C761        C  0.07512556  0.26965704  0.39769121    -0.31100
O762        O  0.13560763  0.20708686  0.45766095    -0.22900
C763        C  0.15231528  0.21581703  0.47935067    -0.02900
C764        C  0.15069961  0.24551838  0.48388183    -0.17300
H765        H  0.12695996  0.30114229  0.47015670     0.20700
H766        H  0.09804900  0.21409453  0.41219348     0.19000
H767        H  0.06418812  0.25682451  0.38152918     0.19000
H768        H  0.16229695  0.25840929  0.49952297     0.14800
C769        C  0.16675888  0.15987303  0.40891713     0.30300
C770        C  0.14787279  0.14955572  0.38758798    -0.36100
C771        C  0.15858857  0.14951844  0.35926317     0.16300
C772        C  0.18617876  0.15851608  0.35255234     0.22100
C773        C  0.20488481  0.16924509  0.37382032    -0.34200
C774        C  0.19396335  0.16980273  0.40203782     0.16200
O775        O  0.16146026  0.16117204  0.43682973    -0.26200
C776        C  0.18529383  0.17271197  0.44793734     0.06000
C777        C  0.20627992  0.17859023  0.42726763    -0.31100
O778        O  0.19185239  0.15641072  0.32476546    -0.22900
C779        C  0.16751314  0.14623832  0.31350364    -0.02900
C780        C  0.14594255  0.14172102  0.33383062    -0.17300
H781        H  0.12637580  0.14211278  0.39272181     0.20700
H782        H  0.22637506  0.17669816  0.36870773     0.19000
H783        H  0.22773931  0.18713079  0.43057018     0.19000
H784        H  0.12419559  0.13401789  0.33031531     0.14800
C785        C  0.41381393  0.14818699  0.18189598     0.30300
C786        C  0.39159603  0.12816631  0.17726004    -0.36100
C787        C  0.36404974  0.13979721  0.17306046     0.16300
C788        C  0.35891326  0.16911068  0.17295717     0.22100
C789        C  0.38100489  0.18907135  0.17825598    -0.34200
C790        C  0.40841637  0.17740374  0.18296512     0.16200
O791        O  0.44136411  0.14218885  0.18489377    -0.26200
C792        C  0.45380783  0.16786416  0.18816796     0.06000
C793        C  0.43417819  0.19054397  0.18786696    -0.31100
O794        O  0.33170542  0.17530093  0.16799679    -0.22900
C795        C  0.31917396  0.14965074  0.16530872    -0.02900
C796        C  0.33813327  0.12671139  0.16843030    -0.17300
H797        H  0.39556119  0.10521666  0.17669028     0.20700
H798        H  0.37712968  0.21203769  0.17848932     0.19000
H799        H  0.43843828  0.21339927  0.18971767     0.19000
H800        H  0.33345568  0.10387601  0.16747318     0.14800
C801        C  0.62120076  0.17932104  0.18240714     0.30300
C802        C  0.64739229  0.19442065  0.18290887    -0.36100
C803        C  0.67126497  0.17968090  0.17166860     0.16300
C804        C  0.66957041  0.15184467  0.16116793     0.22100
C805        C  0.64332646  0.13699044  0.16018396    -0.34200
C806        C  0.61946093  0.15184242  0.17105858     0.16200
O807        O  0.59600151  0.18906303  0.19121842    -0.26200
C808        C  0.57804495  0.16741373  0.18555164     0.06000
C809        C  0.59137266  0.14397059  0.17250636    -0.31100
O810        O  0.69484255  0.14152157  0.15344112    -0.22900
C811        C  0.71279506  0.16326188  0.15841851    -0.02900
C812        C  0.69941600  0.18760437  0.16963387    -0.17300
H813        H  0.64904526  0.21605818  0.19145881     0.20700
H814        H  0.64166348  0.11531023  0.15171643     0.19000
H815        H  0.58154077  0.12432468  0.16458125     0.19000
H816        H  0.70928240  0.20755846  0.17666655     0.14800
C817        C  0.46649052  0.24591198  0.13263216     0.30300
C818        C  0.45900968  0.27454662  0.12612801    -0.36100
C819        C  0.43696097  0.27823807  0.10564268     0.16300
C820        C  0.42292742  0.25531191  0.09282758     0.22100
C821        C  0.43075482  0.22671254  0.09896074    -0.34200
C822        C  0.45315150  0.22305395  0.11901292     0.16200
O823        O  0.48549392  0.23745514  0.15209590    -0.26200
C824        C  0.48462830  0.20877932  0.15070845     0.06000
C825        C  0.46519619  0.19866096  0.13008353    -0.31100
O826        O  0.40278033  0.26365377  0.07452610    -0.22900
C827        C  0.40411848  0.29232264  0.07528555    -0.02900
C828        C  0.42508883  0.30262080  0.09419546    -0.17300
H829        H  0.46949941  0.29264927  0.13644884     0.20700
H830        H  0.42008119  0.20859071  0.08886991     0.19000
H831        H  0.45965547  0.17652967  0.12518234     0.19000
H832        H  0.43086695  0.32478939  0.09863336     0.14800
C833        C  0.43835923  0.06808112  0.28223613     0.30300
C834        C  0.46155344  0.06903721  0.26284332    -0.36100
C835        C  0.46826716  0.09624934  0.25159819     0.16300
C836        C  0.45331948  0.12085635  0.25903633     0.22100
C837        C  0.42993883  0.11987821  0.27825774    -0.34200
C838        C  0.42308684  0.09260750  0.28939543     0.16200
O839        O  0.42819373  0.04484292  0.29500172    -0.26200
C840        C  0.40606921  0.05458683  0.31036902     0.06000
C841        C  0.40170564  0.08407580  0.30771824    -0.31100
O842        O  0.46316504  0.14394587  0.24572311    -0.22900
C843        C  0.48475110  0.13402524  0.22959135    -0.02900
C844        C  0.48869847  0.10440754  0.23217031    -0.17300
H845        H  0.47336848  0.04990122  0.25679514     0.20700
H846        H  0.41783138  0.13895141  0.28391809     0.19000
H847        H  0.38516486  0.09715851  0.31767754     0.19000
H848        H  0.50407892  0.09087786  0.22102116     0.14800
C849        C  0.59507768  0.08479606  0.29889609     0.30300
C850        C  0.57190587  0.10432172  0.29699565    -0.36100
C851        C  0.56511070  0.11431835  0.26910496     0.16300
C852        C  0.57989060  0.10538722  0.24489206     0.22100
C853        C  0.60324455  0.08630884  0.24680669    -0.34200
C854        C  0.61024117  0.07661087  0.27460375     0.16200
O855        O  0.60448060  0.07179060  0.32250571    -0.26200
C856        C  0.62616429  0.05537203  0.31318829     0.06000
C857        C  0.63079065  0.05768912  0.28358973    -0.31100
O858        O  0.56979901  0.11690188  0.22097263    -0.22900
C859        C  0.54843728  0.13394780  0.22961339    -0.02900
C860        C  0.54456138  0.13319328  0.25955237    -0.17300
H861        H  0.55990268  0.11104087  0.31585309     0.20700
H862        H  0.61502975  0.07938495  0.22788953     0.19000
H863        H  0.64626998  0.04618948  0.27045429     0.19000
H864        H  0.52903483  0.14498512  0.27236964     0.14800
C865        C  0.56347994  0.24677512  0.13205677     0.30300
C866        C  0.56892237  0.27563284  0.12449119    -0.36100
C867        C  0.59139211  0.28019208  0.10461734     0.16300
C868        C  0.60763810  0.25789404  0.09347473     0.22100
C869        C  0.60182326  0.22910083  0.10059421    -0.34200
C870        C  0.57902546  0.22456363  0.11990146     0.16200
O871        O  0.54423906  0.23750965  0.15092816    -0.26200
C872        C  0.54723150  0.20894463  0.15055723     0.06000
C873        C  0.56816339  0.19975245  0.13105054    -0.31100
O874        O  0.62767838  0.26689025  0.07545158    -0.22900
C875        C  0.62409809  0.29531765  0.07462320    -0.02900
C876        C  0.60172756  0.30487942  0.09225128    -0.17300
H877        H  0.55657115  0.29323197  0.13347011     0.20700
H878        H  0.61417140  0.21147373  0.09166081     0.19000
H879        H  0.57496042  0.17799365  0.12628361     0.19000
H880        H  0.59407740  0.32669528  0.09525281     0.14800
C881        C  0.19332469  0.34287732  0.18265972     0.30300
C882        C  0.21312858  0.36517206  0.18805419    -0.36100
C883        C  0.20134520  0.39282929  0.19107416     0.16300
C884        C  0.17224475  0.39814415  0.18823836     0.22100
C885        C  0.15239731  0.37582075  0.18359481    -0.34200
C886        C  0.16406799  0.34812238  0.18118251     0.16200
O887        O  0.19955536  0.31547697  0.17865897    -0.26200
C888        C  0.17393372  0.30302943  0.17511198     0.06000
C889        C  0.15103467  0.32218910  0.17667269    -0.31100
O890        O  0.16609708  0.42572926  0.18974917    -0.22900
C891        C  0.19142323  0.43844971  0.19412313    -0.02900
C892        C  0.21417150  0.41888995  0.19569102    -0.17300
H893        H  0.23605154  0.36127315  0.18951025     0.20700
H894        H  0.12952216  0.37983258  0.18167313     0.19000
H895        H  0.12825632  0.31768452  0.17438676     0.19000
H896        H  0.23688173  0.42334662  0.19861674     0.14800
C897        C  0.09001124  0.41543966  0.27785436     0.30300
C898        C  0.09359536  0.42843034  0.25075722    -0.36100
C899        C  0.11861372  0.44498869  0.24727222     0.16300
C900        C  0.13915238  0.44789795  0.26866055     0.22100
C901        C  0.13522012  0.43550400  0.29604851    -0.34200
C902        C  0.10980054  0.41949001  0.29977692     0.16200
O903        O  0.06807430  0.39924169  0.28582687    -0.26200
C904        C  0.07360423  0.39323674  0.31333923     0.06000
C905        C  0.09913406  0.40542420  0.32332661    -0.31100
O906        O  0.16175185  0.46284734  0.26000684    -0.22900
C907        C  0.15522895  0.47005669  0.23297609    -0.02900
C908        C  0.12848544  0.45993959  0.22403736    -0.17300
H909        H  0.07798538  0.42581610  0.23362150     0.20700
H910        H  0.15087169  0.43807987  0.31315672     0.19000
H911        H  0.10834648  0.40414666  0.34475986     0.19000
H912        H  0.11848158  0.46224167  0.20305707     0.14800
C913        C  0.29843216  0.41699576  0.10879942     0.30300
C914        C  0.29800172  0.44087186  0.12757612    -0.36100
C915        C  0.27069776  0.44950491  0.13755319     0.16300
C916        C  0.24563341  0.43570640  0.12939693     0.22100
C917        C  0.24611363  0.41145873  0.11129482    -0.34200
C918        C  0.27334819  0.40269710  0.10154739     0.16200
O919        O  0.32123269  0.40635233  0.09538383    -0.26200
C920        C  0.31061390  0.38468073  0.07972095     0.06000
C921        C  0.28098639  0.38126254  0.08297521    -0.31100
O922        O  0.22248949  0.44733497  0.14103441    -0.22900
C923        C  0.23266747  0.46874111  0.15729187    -0.02900
C924        C  0.26263595  0.47108360  0.15596163    -0.17300
H925        H  0.31749810  0.45215009  0.13364352     0.20700
H926        H  0.22657567  0.40035706  0.10504759     0.19000
H927        H  0.26692290  0.36622710  0.07195823     0.19000
H928        H  0.27645312  0.48593336  0.16752894     0.14800
C929        C  0.29290255  0.59283925  0.11124893     0.30300
C930        C  0.28234558  0.58918751  0.13942953    -0.36100
C931        C  0.26449277  0.56514670  0.14389652     0.16300
C932        C  0.25714027  0.54621140  0.12211098     0.22100
C933        C  0.26812233  0.54953691  0.09405436    -0.34200
C934        C  0.28631338  0.57334588  0.08966679     0.16200
O935        O  0.30906003  0.61438859  0.10193441    -0.26200
C936        C  0.31325183  0.60824709  0.07418835     0.06000
C937        C  0.29975619  0.58297664  0.06537267    -0.31100
O938        O  0.23877492  0.52623538  0.13075094    -0.22900
C939        C  0.23444635  0.53228976  0.15854203    -0.02900
C940        C  0.25027961  0.55607075  0.16793082    -0.17300
H941        H  0.28731058  0.60425744  0.15654025     0.20700
H942        H  0.26252854  0.53488456  0.07678286     0.19000
H943        H  0.29920518  0.57364815  0.04395411     0.19000
H944        H  0.25048093  0.56580730  0.18917264     0.14800
C945        C  0.12299885  0.56284857  0.24444222     0.30300
C946        C  0.10362178  0.58604368  0.24507705    -0.36100
C947        C  0.09321364  0.59387022  0.27244399     0.16300
C948        C  0.10083220  0.57950648  0.29741667     0.22100
C949        C  0.12051543  0.55655918  0.29679985    -0.34200
C950        C  0.13136557  0.54912402  0.26949397     0.16200
O951        O  0.13618724  0.55262036  0.22137495    -0.26200
C952        C  0.15366151  0.53234446  0.23176976     0.06000
C953        C  0.15159475  0.52940362  0.26166114    -0.31100
O954        O  0.08796216  0.59005538  0.32056019    -0.22900
C955        C  0.07229972  0.61178385  0.31031322    -0.02900
C956        C  0.07482450  0.61522246  0.28055119    -0.17300
H957        H  0.09745177  0.59745417  0.22567501     0.20700
H958        H  0.12716014  0.54551435  0.31625152     0.19000
H959        H  0.16405599  0.51566658  0.27576342     0.19000
H960        H  0.06409467  0.63075419  0.26683863     0.14800
C961        C  0.16896309  0.65458608  0.16772218     0.30300
C962        C  0.17437267  0.62863569  0.15315063    -0.36100
C963        C  0.17983467  0.60461591  0.17067804     0.16300
C964        C  0.18036834  0.60610064  0.20043811     0.22100
C965        C  0.17426442  0.63187685  0.21502955    -0.34200
C966        C  0.16835211  0.65580838  0.19752081     0.16200
O967        O  0.16516883  0.68004339  0.15567769    -0.26200
C968        C  0.16142781  0.69765571  0.17803477     0.06000
C969        C  0.16294411  0.68375030  0.20460564    -0.31100
O970        O  0.18627234  0.58108483  0.21251455    -0.22900
C971        C  0.18915083  0.56314875  0.19024071    -0.02900
C972        C  0.18523089  0.57667011  0.16365539    -0.17300
H973        H  0.17465189  0.62734196  0.12983256     0.20700
H974        H  0.17430322  0.63320853  0.23834410     0.19000
H975        H  0.16212613  0.69319013  0.22596288     0.19000
H976        H  0.18564368  0.56712064  0.14233299     0.14800
C977        C  0.19852349  0.84608985  0.35961384     0.30300
C978        C  0.21701696  0.83768577  0.38210132    -0.36100
C979        C  0.20393707  0.83327981  0.40908181     0.16300
C980        C  0.17488994  0.83762580  0.41372916     0.22100
C981        C  0.15637717  0.84561769  0.39123534    -0.34200
C982        C  0.16929443  0.84940157  0.36417388     0.16200
O983        O  0.20577580  0.85006365  0.33235310    -0.26200
C984        C  0.18080633  0.85566932  0.31937114     0.06000
C985        C  0.15739389  0.85544232  0.33804769    -0.31100
O986        O  0.16745102  0.83379632  0.44087391    -0.22900
C987        C  0.19186233  0.82628543  0.45384901    -0.02900
C988        C  0.21528833  0.82528289  0.43499435    -0.17300
H989        H  0.23985329  0.83449073  0.37873243     0.20700
H990        H  0.13349079  0.84848840  0.39457110     0.19000
H991        H  0.13482861  0.85830739  0.33288585     0.19000
H992        H  0.23758103  0.82059239  0.43995770     0.14800
C993        C  0.10804529  0.71713279  0.43258618     0.30300
C994        C  0.13079708  0.71757987  0.45271697    -0.36100
C995        C  0.13918865  0.74496075  0.46276692     0.16300
C996        C  0.12580325  0.76998444  0.45388138     0.22100
C997        C  0.10350782  0.76959111  0.43351541    -0.34200
C998        C  0.09548266  0.74239759  0.42316614     0.16200
O999        O  0.09596376  0.69404558  0.42092064    -0.26200
C1000       C  0.07590123  0.70488838  0.40341628     0.06000
C1001       C  0.07478005  0.73479996  0.40387209    -0.31100
O1002       O  0.13658213  0.79314716  0.46621275    -0.22900
C1003       C  0.15750308  0.78310415  0.48299421    -0.02900
C1004       C  0.16018519  0.75319989  0.48176910    -0.17300
H1005       H  0.14109967  0.69803513  0.46009584     0.20700
H1006       H  0.09312663  0.78913987  0.42626793     0.19000
H1007       H  0.06005013  0.74881921  0.39245475     0.19000
H1008       H  0.17540068  0.73967284  0.49313927     0.14800
C1009       C  0.24287689  0.89325115  0.45548214     0.30300
C1010       C  0.24288837  0.91377005  0.43321396    -0.36100
C1011       C  0.27003385  0.92139434  0.42221952     0.16300
C1012       C  0.29543044  0.91006029  0.43282089     0.22100
C1013       C  0.29536326  0.88912833  0.45463226    -0.34200
C1014       C  0.26822320  0.88119985  0.46528162     0.16200
O1015       O  0.21994754  0.88202100  0.46804727    -0.26200
C1016       C  0.23076768  0.86247524  0.48610707     0.06000
C1017       C  0.26066834  0.86075415  0.48485968    -0.31100
O1018       O  0.31841503  0.92129544  0.42041980    -0.22900
C1019       C  0.30757285  0.93958403  0.40118792    -0.02900
C1020       C  0.27761063  0.94042633  0.40115997    -0.17300
H1021       H  0.22311361  0.92291960  0.42485200     0.20700
H1022       H  0.31509852  0.87961644  0.46268248     0.19000
H1023       H  0.27471974  0.84530449  0.49516080     0.19000
H1024       H  0.26358698  0.95406844  0.38842687     0.14800
C1025       C  0.11225202  0.71543810  0.60313116     0.30300
C1026       C  0.13906408  0.72955128  0.60224454    -0.36100
C1027       C  0.14394388  0.74748267  0.57828166     0.16300
C1028       C  0.12367956  0.75179299  0.55696042     0.22100
C1029       C  0.09715632  0.73706593  0.55740945    -0.34200
C1030       C  0.09247315  0.71863068  0.58108616     0.16200
O1031       O  0.10245267  0.69911795  0.62438837    -0.26200
C1032       C  0.07636113  0.69105787  0.61549220     0.06000
C1033       C  0.06905803  0.70242573  0.58864614    -0.31100
O1034       O  0.13209316  0.77098176  0.53759592    -0.22900
C1035       C  0.15834293  0.77892343  0.54633876    -0.02900
C1036       C  0.16692543  0.76439181  0.57131845    -0.17300
H1037       H  0.15476913  0.72720307  0.61932721     0.20700
H1038       H  0.08110532  0.74017033  0.54078186     0.19000
H1039       H  0.04879539  0.70041493  0.57724696     0.19000
H1040       H  0.18700362  0.76636584  0.58303468     0.14800
C1041       C  0.24160829  0.89378039  0.57818761     0.30300
C1042       C  0.24163207  0.91631874  0.59853606    -0.36100
C1043       C  0.26856326  0.92335841  0.61064397     0.16300
C1044       C  0.29371491  0.90951628  0.60281404     0.22100
C1045       C  0.29357584  0.88671539  0.58298991    -0.34200
C1046       C  0.26672722  0.87949771  0.57121301     0.16200
O1047       O  0.21891605  0.88299780  0.56465134    -0.26200
C1048       C  0.22979823  0.86159027  0.54881324     0.06000
C1049       C  0.25933152  0.85822874  0.55248772    -0.31100
O1050       O  0.31673431  0.92074613  0.61515299    -0.22900
C1051       C  0.30624970  0.94167402  0.63168335    -0.02900
C1052       C  0.27637252  0.94421231  0.62995106    -0.17300
H1053       H  0.22207333  0.92756055  0.60449642     0.20700
H1054       H  0.31313103  0.87550204  0.57697193     0.19000
H1055       H  0.27310672  0.84147427  0.54397876     0.19000
H1056       H  0.26270689  0.96021831  0.64004192     0.14800
C1057       C  0.36045773  0.81692765  0.16822924     0.30300
C1058       C  0.38197380  0.79762458  0.17721343    -0.36100
C1059       C  0.40943254  0.80959195  0.18153813     0.16300
C1060       C  0.41539087  0.83828990  0.17646696     0.22100
C1061       C  0.39388150  0.85761671  0.16793464    -0.34200
C1062       C  0.36634786  0.84585377  0.16432024     0.16200
O1063       O  0.33295185  0.81085940  0.16439572    -0.26200
C1064       C  0.32119292  0.83628490  0.15826651     0.06000
C1065       C  0.34086780  0.85883199  0.15807096    -0.31100
O1066       O  0.44266872  0.84469319  0.18058922    -0.22900
C1067       C  0.45437657  0.82006531  0.18928948    -0.02900
C1068       C  0.43463422  0.79740389  0.19042061    -0.17300
H1069       H  0.37751979  0.77507287  0.18102648     0.20700
H1070       H  0.39825067  0.88027674  0.16469349     0.19000
H1071       H  0.33674923  0.88155842  0.15487882     0.19000
H1072       H  0.43856436  0.77509720  0.19593847     0.14800
C1073       C  0.61661210  0.84688882  0.18466850     0.30300
C1074       C  0.63753212  0.86844654  0.18055638    -0.36100
C1075       C  0.66585767  0.85873237  0.17619625     0.16300
C1076       C  0.67285956  0.82981714  0.17545715     0.22100
C1077       C  0.65210401  0.80838321  0.18015365    -0.34200
C1078       C  0.62398662  0.81810024  0.18494947     0.16200
O1079       O  0.58873318  0.85089556  0.18847269    -0.26200
C1080       C  0.57817598  0.82430938  0.19137871     0.06000
C1081       C  0.59933134  0.80312045  0.18995640    -0.31100
O1082       O  0.70041998  0.82542100  0.17056894    -0.22900
C1083       C  0.71139140  0.85181133  0.16853718    -0.02900
C1084       C  0.69101364  0.87348777  0.17207482    -0.17300
H1085       H  0.63210451  0.89111337  0.18068095     0.20700
H1086       H  0.65750144  0.78570439  0.18001343     0.19000
H1087       H  0.59691238  0.78002454  0.19201749     0.19000
H1088       H  0.69429750  0.89658178  0.17164563     0.14800
C1089       C  0.45624447  0.76802936  0.12317706     0.30300
C1090       C  0.43442565  0.76833961  0.10219995    -0.36100
C1091       C  0.42376839  0.74133076  0.09365736     0.16300
C1092       C  0.43417379  0.71568374  0.10457744     0.22100
C1093       C  0.45549256  0.71542660  0.12613637    -0.34200
C1094       C  0.46588748  0.74249621  0.13495213     0.16200
O1095       O  0.46864166  0.79081984  0.13488222    -0.26200
C1096       C  0.48644950  0.77983412  0.15457484     0.06000
C1097       C  0.48523699  0.74985325  0.15582570    -0.31100
O1098       O  0.42205599  0.69291532  0.09237898    -0.22900
C1099       C  0.40324093  0.70421664  0.07385650    -0.02900
C1100       C  0.40322251  0.73420417  0.07393495    -0.17300
H1101       H  0.42621615  0.78827493  0.09326671     0.20700
H1102       H  0.46344009  0.69552904  0.13537491     0.19000
H1103       H  0.49559191  0.73559814  0.17106353     0.19000
H1104       H  0.39064809  0.74861496  0.06054700     0.14800
C1105       C  0.43249064  0.90386391  0.29957567     0.30300
C1106       C  0.45411785  0.88254821  0.29954295    -0.36100
C1107       C  0.46320675  0.87284586  0.27219033     0.16300
C1108       C  0.45207825  0.88379467  0.24684818     0.22100
C1109       C  0.43015689  0.90447339  0.24686680    -0.34200
C1110       C  0.42079284  0.91375907  0.27402773     0.16200
O1111       O  0.42146976  0.91704693  0.32240820    -0.26200
C1112       C  0.40215899  0.93512112  0.31114396     0.06000
C1113       C  0.40074113  0.93378560  0.28120710    -0.31100
O1114       O  0.46402767  0.87251429  0.22374478    -0.22900
C1115       C  0.48277221  0.85350538  0.23403406    -0.02900
C1116       C  0.48320118  0.85270140  0.26419019    -0.17300
H1117       H  0.46334734  0.87433649  0.31933462     0.20700
H1118       H  0.42116368  0.91287439  0.22704801     0.19000
H1119       H  0.38767079  0.94663639  0.26677618     0.19000
H1120       H  0.49630499  0.83927532  0.27805245     0.14800
C1121       C  0.60221358  0.71821324  0.10611908     0.30300
C1122       C  0.58302652  0.71791350  0.12951184    -0.36100
C1123       C  0.57147128  0.74464958  0.13747127     0.16300
C1124       C  0.57804046  0.76997897  0.12328004     0.22100
C1125       C  0.59776623  0.77039354  0.10026010    -0.34200
C1126       C  0.60965505  0.74365404  0.09251816     0.16200
O1127       O  0.61450213  0.69549303  0.09424880    -0.26200
C1128       C  0.63057516  0.70657810  0.07320904     0.06000
C1129       C  0.62857938  0.73643475  0.07120550    -0.31100
O1130       O  0.56455797  0.79243823  0.13441065    -0.22900
C1131       C  0.54917125  0.78125355  0.15598782    -0.02900
C1132       C  0.55309034  0.75173107  0.15917546    -0.17300
H1133       H  0.57731814  0.69817176  0.14059153     0.20700
H1134       H  0.60340325  0.79014233  0.08914153     0.19000
H1135       H  0.63849362  0.75052326  0.05540756     0.19000
H1136       H  0.54465502  0.73773235  0.17582883     0.14800
C1137       C  0.55720126  0.88750743  0.26494934     0.30300
C1138       C  0.55783975  0.91403846  0.27957601    -0.36100
C1139       C  0.58177434  0.91881407  0.29756380     0.16300
C1140       C  0.60385622  0.89909765  0.30047783     0.22100
C1141       C  0.60273690  0.87221873  0.28656808    -0.34200
C1142       C  0.57854936  0.86727767  0.26902356     0.16200
O1143       O  0.53769866  0.87912240  0.24592519    -0.26200
C1144       C  0.54636074  0.85291291  0.23792326     0.06000
C1145       C  0.57146755  0.84434984  0.25214105    -0.31100
O1146       O  0.62545857  0.90913281  0.31612635    -0.22900
C1147       C  0.61672367  0.93529599  0.32400307    -0.02900
C1148       C  0.58966290  0.94241312  0.31325766    -0.17300
H1149       H  0.54123833  0.93008382  0.27660097     0.20700
H1150       H  0.61986897  0.85658448  0.28864418     0.19000
H1151       H  0.58317681  0.82431980  0.24997178     0.19000
H1152       H  0.57836274  0.96270250  0.31521625     0.14800
C1153       C  0.18541545  0.83652981  0.67392168     0.30300
C1154       C  0.20630212  0.83473679  0.65218538    -0.36100
C1155       C  0.19583371  0.83023364  0.62424001     0.16300
C1156       C  0.16683830  0.82839576  0.61793066     0.22100
C1157       C  0.14591919  0.82946547  0.63979668    -0.34200
C1158       C  0.15641586  0.83330759  0.66794068     0.16200
O1159       O  0.19045721  0.84073538  0.70152799    -0.26200
C1160       C  0.16444465  0.83970157  0.71348986     0.06000
C1161       C  0.14238562  0.83486675  0.69376767    -0.31100
O1162       O  0.16197945  0.82529254  0.59008275    -0.22900
C1163       C  0.18823987  0.82472749  0.57845562    -0.02900
C1164       C  0.21011561  0.82706153  0.59890299    -0.17300
H1165       H  0.22909816  0.83667591  0.65675167     0.20700
H1166       H  0.12314728  0.82741238  0.63519868     0.19000
H1167       H  0.11948426  0.83309882  0.69786589     0.19000
H1168       H  0.23318806  0.82639247  0.59573391     0.14800
C1169       C  0.35426912  0.82819738  0.84823871     0.30300
C1170       C  0.37690497  0.80893134  0.84278415    -0.36100
C1171       C  0.40445248  0.82118276  0.84090818     0.16300
C1172       C  0.40938154  0.85025940  0.84472235     0.22100
C1173       C  0.38667257  0.86965308  0.84935602    -0.34200
C1174       C  0.35904738  0.85748166  0.85075018     0.16200
O1175       O  0.32700193  0.82127339  0.85192392    -0.26200
C1176       C  0.31410600  0.84645737  0.85637918     0.06000
C1177       C  0.33284040  0.86982686  0.85559965    -0.31100
O1178       O  0.43698217  0.85672798  0.84433183    -0.22900
C1179       C  0.44999501  0.83164041  0.83959001    -0.02900
C1180       C  0.43072386  0.80874103  0.83693834    -0.17300
H1181       H  0.37335010  0.78599760  0.84068797     0.20700
H1182       H  0.39035578  0.89249121  0.85221823     0.19000
H1183       H  0.32794130  0.89238636  0.85888342     0.19000
H1184       H  0.43549653  0.78614011  0.83378647     0.14800
C1185       C  0.66565113  0.85156715  0.86858729     0.30300
C1186       C  0.63984638  0.86642188  0.86357758    -0.36100
C1187       C  0.61569433  0.84924574  0.85768130     0.16300
C1188       C  0.61688736  0.81955119  0.85632495     0.22100
C1189       C  0.64252809  0.80465521  0.86201996    -0.34200
C1190       C  0.66659691  0.82181223  0.86840803     0.16200
O1191       O  0.69122974  0.86330110  0.87259588    -0.26200
C1192       C  0.70861497  0.84075874  0.87572256     0.06000
C1193       C  0.69446758  0.81440570  0.87354157    -0.31100
O1194       O  0.59182360  0.80788019  0.84974830    -0.22900
C1195       C  0.57425462  0.83039296  0.84718276    -0.02900
C1196       C  0.58793478  0.85665686  0.85215955    -0.17300
H1197       H  0.63876712  0.88970771  0.86382171     0.20700
H1198       H  0.64369067  0.78139197  0.86124178     0.19000
H1199       H  0.70372486  0.79301310  0.87369600     0.19000
H1200       H  0.57864055  0.87803939  0.85193791     0.14800
C1201       C  0.41608380  0.74501380  0.93612249     0.30300
C1202       C  0.42348120  0.77360221  0.92927793    -0.36100
C1203       C  0.44615306  0.77713917  0.90946006     0.16300
C1204       C  0.46026749  0.75416941  0.89689770     0.22100
C1205       C  0.45311451  0.72562744  0.90398627    -0.34200
C1206       C  0.43071685  0.72208686  0.92406334     0.16200
O1207       O  0.39610591  0.73666312  0.95468279    -0.26200
C1208       C  0.39817111  0.70802350  0.95467776     0.06000
C1209       C  0.41938662  0.69779081  0.93608550    -0.31100
O1210       O  0.47994189  0.76238664  0.87801924    -0.22900
C1211       C  0.47862234  0.79104045  0.87856888    -0.02900
C1212       C  0.45822070  0.80141362  0.89808492    -0.17300
H1213       H  0.41243882  0.79177554  0.93879534     0.20700
H1214       H  0.46423385  0.70747101  0.89453044     0.19000
H1215       H  0.42592477  0.67570330  0.93249178     0.19000
H1216       H  0.45242954  0.82358618  0.90238289     0.14800
C1217       C  0.45573110  0.89900140  0.78629755     0.30300
C1218       C  0.43594814  0.92182321  0.78547927    -0.36100
C1219       C  0.42460485  0.92860559  0.75825570     0.16300
C1220       C  0.43260561  0.91434683  0.73335436     0.22100
C1221       C  0.45218411  0.89117592  0.73423861    -0.34200
C1222       C  0.46319217  0.88404012  0.76164764     0.16200
O1223       O  0.46805521  0.88855678  0.80967496    -0.26200
C1224       C  0.48331574  0.86624320  0.80016381     0.06000
C1225       C  0.48128134  0.86245132  0.77036046    -0.31100
O1226       O  0.41997919  0.92506963  0.71010473    -0.22900
C1227       C  0.40327452  0.94606411  0.72041239    -0.02900
C1228       C  0.40521016  0.94911009  0.75023339    -0.17300
H1229       H  0.42959523  0.93327087  0.80479249     0.20700
H1230       H  0.45823814  0.87945183  0.71499909     0.19000
H1231       H  0.49095817  0.84572459  0.75729661     0.19000
H1232       H  0.39459104  0.96479990  0.76385437     0.14800
C1233       C  0.60965681  0.90871502  0.74277816     0.30300
C1234       C  0.60679177  0.88142587  0.75571644    -0.36100
C1235       C  0.58140340  0.87677825  0.77168762     0.16300
C1236       C  0.56062817  0.89768949  0.77529251     0.22100
C1237       C  0.56318877  0.92471389  0.76190118    -0.34200
C1238       C  0.58822098  0.92916658  0.74542884     0.16200
O1239       O  0.63174889  0.91800581  0.72723610    -0.26200
C1240       C  0.62397029  0.94450650  0.71939337     0.06000
C1241       C  0.59710876  0.95251014  0.72997137    -0.31100
O1242       O  0.53947225  0.88932039  0.79244747    -0.22900
C1243       C  0.54646860  0.86246755  0.79985098    -0.02900
C1244       C  0.57214296  0.85340339  0.78691377    -0.17300
H1245       H  0.62322958  0.86506599  0.75364529     0.20700
H1246       H  0.54691009  0.94118221  0.76431800     0.19000
H1247       H  0.58607865  0.97285168  0.72716201     0.19000
H1248       H  0.58288475  0.83283069  0.78904078     0.14800
C1249       C  0.55836618  0.75241909  0.89989778     0.30300
C1250       C  0.56603294  0.72373387  0.90603692    -0.36100
C1251       C  0.58819637  0.71992506  0.92639782     0.16300
C1252       C  0.60209969  0.74280245  0.93944152     0.22100
C1253       C  0.59391497  0.77139476  0.93388871    -0.34200
C1254       C  0.57145790  0.77515284  0.91395466     0.16200
O1255       O  0.53992916  0.76108688  0.87995971    -0.26200
C1256       C  0.54096158  0.78976411  0.88149015     0.06000
C1257       C  0.55973141  0.79963513  0.90282908    -0.31100
O1258       O  0.62283872  0.73443783  0.95701940    -0.22900
C1259       C  0.62202644  0.70578498  0.95561242    -0.02900
C1260       C  0.60075100  0.69549882  0.93704237    -0.17300
H1261       H  0.55587442  0.70570937  0.89526545     0.20700
H1262       H  0.60462847  0.78946157  0.94403135     0.19000
H1263       H  0.56542279  0.82168900  0.90789728     0.19000
H1264       H  0.59540934  0.67332990  0.93210635     0.14800
C1265       C  0.16964888  0.16406334  0.61212322     0.30300
C1266       C  0.14969121  0.15894534  0.63429630    -0.36100
C1267       C  0.16141674  0.15233493  0.66139524     0.16300
C1268       C  0.19073194  0.15033832  0.66617638     0.22100
C1269       C  0.21067174  0.15605883  0.64413350    -0.34200
C1270       C  0.19892455  0.16336634  0.61724171     0.16200
O1271       O  0.16349319  0.16952896  0.58491024    -0.26200
C1272       C  0.18915334  0.17272924  0.57240705     0.06000
C1273       C  0.21196814  0.17000839  0.59180948    -0.31100
O1274       O  0.19696169  0.14448531  0.69329863    -0.22900
C1275       C  0.17134126  0.14310185  0.70611251    -0.02900
C1276       C  0.14843014  0.14788908  0.68738455    -0.17300
H1277       H  0.12669469  0.16015530  0.63070114     0.20700
H1278       H  0.23366947  0.15517169  0.64776510     0.19000
H1279       H  0.23484542  0.17151998  0.58758752     0.19000
H1280       H  0.12567978  0.14898405  0.69244038     0.14800
C1281       C  0.18041495  0.39414608  0.85841588     0.30300
C1282       C  0.17490247  0.37139709  0.87752014    -0.36100
C1283       C  0.16965926  0.34456538  0.86473624     0.16300
C1284       C  0.16931996  0.34052290  0.83518039     0.22100
C1285       C  0.17552514  0.36320729  0.81609213    -0.34200
C1286       C  0.18145605  0.38992067  0.82896245     0.16200
O1287       O  0.18433389  0.42124066  0.86565498    -0.26200
C1288       C  0.18857866  0.43469494  0.84066988     0.06000
C1289       C  0.18770224  0.41601391  0.81705450    -0.31100
O1290       O  0.16403282  0.31355616  0.82798847    -0.22900
C1291       C  0.16135074  0.30018705  0.85327013    -0.02900
C1292       C  0.16477173  0.31833309  0.87688200    -0.17300
H1293       H  0.17463098  0.37443967  0.90066322     0.20700
H1294       H  0.17578750  0.36022733  0.79294133     0.19000
H1295       H  0.18985039  0.42112807  0.79436118     0.19000
H1296       H  0.16445182  0.31280933  0.89958434     0.14800
C1297       C  0.19139869  0.60219958  0.85575632     0.30300
C1298       C  0.20469704  0.62845977  0.86237437    -0.36100
C1299       C  0.18620604  0.65202332  0.86577742     0.16300
C1300       C  0.15669877  0.65014268  0.86226606     0.22100
C1301       C  0.14330949  0.62363582  0.85642216    -0.34200
C1302       C  0.16181476  0.59989764  0.85365571     0.16200
O1303       O  0.20463874  0.57754762  0.85120975    -0.26200
C1304       C  0.18329139  0.55893059  0.84671106     0.06000
C1305       C  0.15611147  0.57165960  0.84833565    -0.31100
O1306       O  0.14389798  0.67545697  0.86431669    -0.22900
C1307       C  0.16549939  0.69351768  0.86989246    -0.02900
C1308       C  0.19222319  0.68008938  0.87124056    -0.17300
H1309       H  0.22783690  0.63042503  0.86447381     0.20700
H1310       H  0.12020181  0.62170681  0.85389632     0.19000
H1311       H  0.13521478  0.56155229  0.84583732     0.19000
H1312       H  0.21321030  0.68985206  0.87422697     0.14800
C1313       C  0.09146943  0.41013465  0.75133267     0.30300
C1314       C  0.09722614  0.41763405  0.78008974    -0.36100
C1315       C  0.11910582  0.43800505  0.78433993     0.16300
C1316       C  0.13459343  0.45000637  0.76188793     0.22100
C1317       C  0.12845437  0.44287451  0.73296998    -0.34200
C1318       C  0.10623098  0.42265307  0.72866661     0.16200
O1319       O  0.07210996  0.39126357  0.74266003    -0.26200
C1320       C  0.07406468  0.39183487  0.71401114     0.06000
C1321       C  0.09482056  0.41112404  0.70396244    -0.31100
O1322       O  0.15514189  0.46750146  0.77108612    -0.22900
C1323       C  0.15264409  0.46663473  0.79977051    -0.02900
C1324       C  0.13026294  0.44900482  0.80916614    -0.17300
H1325       H  0.08563015  0.40804311  0.79791978     0.20700
H1326       H  0.14032162  0.45218546  0.71516219     0.19000
H1327       H  0.10070987  0.41577120  0.68182878     0.19000
H1328       H  0.12393907  0.44422183  0.83114524     0.14800
C1329       C  0.27353804  0.40952298  0.94239155     0.30300
C1330       C  0.24582992  0.42090090  0.93814737    -0.36100
C1331       C  0.24240464  0.43899555  0.91411693     0.16300
C1332       C  0.26447111  0.44486594  0.89500874     0.22100
C1333       C  0.29243197  0.43405272  0.89965530    -0.34200
C1334       C  0.29605864  0.41649082  0.92417537     0.16200
O1335       O  0.28142057  0.39208016  0.96346267    -0.26200
C1336       C  0.30950917  0.38819785  0.95912837     0.06000
C1337       C  0.31990011  0.40304157  0.93511586    -0.31100
O1338       O  0.25587997  0.46084721  0.87298835    -0.22900
C1339       C  0.22806636  0.46563365  0.87837148    -0.02900
C1340       C  0.21871525  0.45304131  0.90399038    -0.17300
H1341       H  0.22815342  0.41593214  0.95254346     0.20700
H1342       H  0.31004891  0.43886862  0.88513213     0.19000
H1343       H  0.34171199  0.40358730  0.92684281     0.19000
H1344       H  0.19724877  0.45327618  0.91313510     0.14800
C1345       C  0.11056880  0.58619780  0.73417925     0.30300
C1346       C  0.13701042  0.58516579  0.74889970    -0.36100
C1347       C  0.14115808  0.56131982  0.76706938     0.16300
C1348       C  0.12049819  0.54029654  0.77102520     0.22100
C1349       C  0.09429623  0.54097721  0.75584973    -0.34200
C1350       C  0.09039665  0.56447953  0.73715161     0.16200
O1351       O  0.10151598  0.60727123  0.71732406    -0.26200
C1352       C  0.07558020  0.59851151  0.70871605     0.06000
C1353       C  0.06754526  0.57203009  0.72028032    -0.31100
O1354       O  0.12838746  0.52071345  0.79008903    -0.22900
C1355       C  0.15468431  0.52897900  0.79828366    -0.02900
C1356       C  0.16381919  0.55398077  0.78422742    -0.17300
H1357       H  0.15304124  0.60196243  0.74666216     0.20700
H1358       H  0.07799349  0.52452941  0.75866323     0.19000
H1359       H  0.04715606  0.56090019  0.71795915     0.19000
H1360       H  0.18407043  0.56533174  0.78662591     0.14800
C1361       C  0.29335184  0.57964358  0.92814991     0.30300
C1362       C  0.29261572  0.55691961  0.90806763    -0.36100
C1363       C  0.26509366  0.54735813  0.89969759     0.16300
C1364       C  0.24002558  0.55901474  0.91063829     0.22100
C1365       C  0.24074751  0.58194847  0.93043668    -0.34200
C1366       C  0.26824224  0.59183252  0.93843797     0.16200
O1367       O  0.31668011  0.59163945  0.93934813    -0.26200
C1368       C  0.30636751  0.61214333  0.95663988     0.06000
C1369       C  0.27637852  0.61331404  0.95679991    -0.31100
O1370       O  0.21668206  0.54738861  0.89918375    -0.22900
C1371       C  0.22684491  0.52820842  0.88033156    -0.02900
C1372       C  0.25687046  0.52731913  0.87978405    -0.17300
H1373       H  0.31209873  0.54753475  0.89939133     0.20700
H1374       H  0.22124789  0.59167464  0.93869036     0.19000
H1375       H  0.26260171  0.62724359  0.96946754     0.19000
H1376       H  0.27063376  0.51487181  0.86566411     0.14800
C1377       C  0.35677694  0.18028992  0.85360386     0.30300
C1378       C  0.37813603  0.20120482  0.84879188    -0.36100
C1379       C  0.40565881  0.19068148  0.84209774     0.16300
C1380       C  0.41187194  0.16163785  0.84094045     0.22100
C1381       C  0.39039677  0.14073544  0.84507759    -0.34200
C1382       C  0.36275937  0.15123755  0.85123286     0.16200
O1383       O  0.32943568  0.18526868  0.85946721    -0.26200
C1384       C  0.31772630  0.15909273  0.86049340     0.06000
C1385       C  0.33736730  0.13708518  0.85539562    -0.31100
O1386       O  0.43936053  0.15661313  0.83601541    -0.22900
C1387       C  0.45099211  0.18276532  0.83364382    -0.02900
C1388       C  0.43078788  0.20480746  0.83652630    -0.17300
H1389       H  0.37360572  0.22401856  0.85009724     0.20700
H1390       H  0.39493013  0.11793272  0.84364143     0.19000
H1391       H  0.33334856  0.11413272  0.85431580     0.19000
H1392       H  0.43428296  0.22784918  0.83561182     0.14800
C1393       C  0.42163786  0.10247999  0.72889996     0.30300
C1394       C  0.42349529  0.13015848  0.74110305    -0.36100
C1395       C  0.44781200  0.13550545  0.75838599     0.16300
C1396       C  0.46847982  0.11488656  0.76382341     0.22100
C1397       C  0.46710487  0.08754653  0.75093578    -0.34200
C1398       C  0.44315263  0.08238376  0.73316910     0.16200
O1399       O  0.39992224  0.09209684  0.71361828    -0.26200
C1400       C  0.40809263  0.06530386  0.70742507     0.06000
C1401       C  0.43484430  0.05815261  0.71881476    -0.31100
O1402       O  0.48833589  0.12385903  0.78212632    -0.22900
C1403       C  0.48076726  0.15088596  0.78819898    -0.02900
C1404       C  0.45583184  0.15933982  0.77358760    -0.17300
H1405       H  0.40687741  0.14617020  0.73786832     0.20700
H1406       H  0.48327645  0.07126426  0.75492623     0.19000
H1407       H  0.44570997  0.03754233  0.71804799     0.19000
H1408       H  0.44488558  0.17990485  0.77444837     0.14800
C1409       C  0.45317542  0.23371086  0.90254490     0.30300
C1410       C  0.43071206  0.23296883  0.92283161    -0.36100
C1411       C  0.42188604  0.25971217  0.93384880     0.16300
C1412       C  0.43464442  0.28542585  0.92593735     0.22100
C1413       C  0.45690076  0.28619005  0.90532904    -0.34200
C1414       C  0.46539884  0.25944093  0.89393112     0.16200
O1415       O  0.46388798  0.21135393  0.88863237    -0.26200
C1416       C  0.48302661  0.22284129  0.87051872     0.06000
C1417       C  0.48485504  0.25273860  0.87290299    -0.31100
O1418       O  0.42350328  0.30776670  0.93968150    -0.22900
C1419       C  0.40298775  0.29621321  0.95618683    -0.02900
C1420       C  0.40095067  0.26642514  0.95332359    -0.17300
H1421       H  0.42055888  0.21298082  0.92926161     0.20700
H1422       H  0.46670301  0.30621042  0.89847971     0.19000
H1423       H  0.49764500  0.26747434  0.86010465     0.19000
H1424       H  0.38671244  0.25178779  0.96465207     0.14800
C1425       C  0.57423695  0.11633301  0.77919976     0.30300
C1426       C  0.59660994  0.09607760  0.77977860    -0.36100
C1427       C  0.60544641  0.08531149  0.75292663     0.16300
C1428       C  0.59282407  0.09342601  0.72718816     0.22100
C1429       C  0.57061654  0.11405586  0.72659103    -0.34200
C1430       C  0.56210483  0.12526344  0.75350674     0.16200
O1431       O  0.56326833  0.12962962  0.80180367    -0.26200
C1432       C  0.54399980  0.14769690  0.79061643     0.06000
C1433       C  0.54245997  0.14601331  0.76055638    -0.31100
O1434       O  0.60407913  0.07985988  0.70471833    -0.22900
C1435       C  0.62446789  0.06326369  0.71629699    -0.02900
C1436       C  0.62630096  0.06590184  0.74616464    -0.17300
H1437       H  0.60664277  0.08938220  0.79980681     0.20700
H1438       H  0.56081131  0.12103545  0.70654268     0.19000
H1439       H  0.52916691  0.15860966  0.74607374     0.19000
H1440       H  0.64047408  0.05453958  0.76083937     0.14800
C1441       C  0.56725130  0.25834200  0.88669415     0.30300
C1442       C  0.57944902  0.28556754  0.89237145    -0.36100
C1443       C  0.59563543  0.28791280  0.91798605     0.16300
C1444       C  0.60004866  0.26484955  0.93629611     0.22100
C1445       C  0.58732065  0.23790912  0.93096935    -0.34200
C1446       C  0.57061699  0.23578316  0.90581627     0.16200
O1447       O  0.55204535  0.25093447  0.86368979    -0.26200
C1448       C  0.54528235  0.22340779  0.86844946     0.06000
C1449       C  0.55580964  0.21305936  0.89457741    -0.31100
O1450       O  0.61665177  0.27144243  0.95847239    -0.22900
C1451       C  0.62257174  0.29925930  0.95473892    -0.02900
C1452       C  0.60989013  0.31077534  0.93003012    -0.17300
H1453       H  0.57663079  0.30357012  0.87782440     0.20700
H1454       H  0.59029777  0.21984214  0.94539485     0.19000
H1455       H  0.55370824  0.19156653  0.90339975     0.19000
H1456       H  0.61131525  0.33262917  0.92198704     0.14800
C1457       C  0.85447460  0.14929915  0.61341012     0.30300
C1458       C  0.86023855  0.12903645  0.63511428    -0.36100
C1459       C  0.86470706  0.14030383  0.66283488     0.16300
C1460       C  0.86403579  0.16950946  0.66858905     0.22100
C1461       C  0.85767736  0.18968608  0.64700305    -0.34200
C1462       C  0.85266049  0.17836415  0.61944645     0.16200
O1463       O  0.85071853  0.14368508  0.58582594    -0.26200
C1464       C  0.84623489  0.16945144  0.57403858     0.06000
C1465       C  0.84642362  0.19178237  0.59412674    -0.31100
O1466       O  0.86859540  0.17531712  0.69600603    -0.22900
C1467       C  0.87188359  0.14952832  0.70803665    -0.02900
C1468       C  0.86952168  0.12687110  0.68854363    -0.17300
H1469       H  0.86118167  0.10617747  0.63069364     0.20700
H1470       H  0.85661405  0.21253713  0.65140911     0.19000
H1471       H  0.84357132  0.21462089  0.59042477     0.19000
H1472       H  0.87046770  0.10396954  0.69285521     0.14800
C1473       C  0.61554661  0.17490142  0.84973641     0.30300
C1474       C  0.63756979  0.16848004  0.86938707    -0.36100
C1475       C  0.66478868  0.16349544  0.85737187     0.16300
C1476       C  0.66989773  0.16429112  0.82799359     0.22100
C1477       C  0.64793863  0.17142326  0.80836510    -0.34200
C1478       C  0.62077745  0.17696730  0.82048891     0.16200
O1479       O  0.58825212  0.17873960  0.85621495    -0.26200
C1480       C  0.57565061  0.18390711  0.83096302     0.06000
C1481       C  0.59505455  0.18360507  0.80792163    -0.31100
O1482       O  0.69695896  0.15848369  0.82155070    -0.22900
C1483       C  0.70928469  0.15431113  0.84716870    -0.02900
C1484       C  0.69040019  0.15734589  0.87022993    -0.17300
H1485       H  0.63367987  0.16720563  0.89237294     0.20700
H1486       H  0.65171839  0.17243247  0.78534989     0.19000
H1487       H  0.59059163  0.18641504  0.78516107     0.19000
H1488       H  0.69499915  0.15556323  0.89307022     0.14800
C1489       C  0.83950958  0.34040914  0.85574546     0.30300
C1490       C  0.81960292  0.36271928  0.85139341    -0.36100
C1491       C  0.83137914  0.39005046  0.84612648     0.16300
C1492       C  0.86064656  0.39525000  0.84606422     0.22100
C1493       C  0.88058811  0.37281793  0.84966876    -0.34200
C1494       C  0.86883815  0.34532274  0.85423590     0.01400
O1495       O  0.83323680  0.31309789  0.86033127    -0.26200
C1496       C  0.85883808  0.30027415  0.86131046     0.06000
C1497       C  0.88180028  0.31918208  0.85749652    -0.31100
O1498       O  0.86681238  0.42277400  0.84276991    -0.22900
C1499       C  0.84117861  0.43546694  0.84031829    -0.02900
C1500       C  0.81837410  0.41586029  0.84132307    -0.17300
H1501       H  0.79659502  0.35901806  0.85200284     0.20700
H1502       H  0.90359343  0.37655399  0.84902002     0.19000
H1503       H  0.90458550  0.31426785  0.85676840     0.19000
H1504       H  0.79549824  0.42007727  0.83982065     0.14800
C1505       C  0.84982961  0.60345408  0.83171563     0.30300
C1506       C  0.85574938  0.62914726  0.81686893    -0.36100
C1507       C  0.85984192  0.65364797  0.83415551     0.16300
C1508       C  0.85756749  0.65298557  0.86389899     0.22100
C1509       C  0.85224859  0.62721177  0.87872093    -0.34200
C1510       C  0.84880874  0.60266734  0.86148537     0.16200
O1511       O  0.84564872  0.57790828  0.81999922    -0.26200
C1512       C  0.84235471  0.56042275  0.84258134     0.06000
C1513       C  0.84444640  0.57472693  0.86894839    -0.31100
O1514       O  0.86027451  0.67867846  0.87566189    -0.22900
C1515       C  0.86499222  0.69593665  0.85324594    -0.02900
C1516       C  0.86517844  0.68157221  0.82686355    -0.17300
H1517       H  0.85708778  0.62996102  0.79356436     0.20700
H1518       H  0.85080262  0.62637300  0.90202262     0.19000
H1519       H  0.84343838  0.56573807  0.89049397     0.19000
H1520       H  0.86729156  0.69063176  0.80543135     0.14800
C1521       C  0.89012463  0.43549524  0.76985199     0.30300
C1522       C  0.89131014  0.41232217  0.75030917    -0.36100
C1523       C  0.91861915  0.40595240  0.73883882     0.16300
C1524       C  0.94299845  0.42151685  0.74595169     0.22100
C1525       C  0.94185218  0.44445074  0.76572712    -0.34200
C1526       C  0.91460742  0.45066119  0.77730988     0.16200
O1527       O  0.86693476  0.44501333  0.78332420    -0.26200
C1528       C  0.87662165  0.46662258  0.79967066     0.06000
C1529       C  0.90626032  0.47084321  0.79696968    -0.31100
O1530       O  0.96621847  0.41212306  0.73247953    -0.22900
C1531       C  0.95668400  0.39009336  0.71672293    -0.02900
C1532       C  0.92727630  0.38512124  0.71985994    -0.17300
H1533       H  0.87231841  0.40007895  0.74454423     0.20700
H1534       H  0.96087078  0.45656314  0.77169442     0.19000
H1535       H  0.91978826  0.48616390  0.80824283     0.19000
H1536       H  0.91424624  0.36873361  0.70953555     0.14800
C1537       C  0.73128991  0.41931845  0.92638838     0.30300
C1538       C  0.73241197  0.44161187  0.90581855    -0.36100
C1539       C  0.76003530  0.44908687  0.89575176     0.16300
C1540       C  0.78478768  0.43598371  0.90575295     0.22100
C1541       C  0.78363077  0.41339627  0.92579693    -0.34200
C1542       C  0.75607633  0.40553983  0.93536608     0.16200
O1543       O  0.70795753  0.40918804  0.93931935    -0.26200
C1544       C  0.71802946  0.38831722  0.95630055     0.06000
C1545       C  0.74774730  0.38500755  0.95455168    -0.31100
O1546       O  0.80834319  0.44651725  0.89385785    -0.22900
C1547       C  0.79870831  0.46637371  0.87551729    -0.02900
C1548       C  0.76872214  0.46878572  0.87564451    -0.17300
H1549       H  0.71318323  0.45232552  0.89821287     0.20700
H1550       H  0.80286985  0.40265373  0.93334279     0.19000
H1551       H  0.76131960  0.37026804  0.96649122     0.19000
H1552       H  0.75538680  0.48289656  0.86272559     0.14800
C1553       C  0.76917490  0.56289310  0.88685939     0.30300
C1554       C  0.75231457  0.58805903  0.88785837    -0.36100
C1555       C  0.73849873  0.59377618  0.91427787     0.16300
C1556       C  0.74071379  0.57562068  0.93780378     0.22100
C1557       C  0.75809453  0.55091617  0.93699448    -0.34200
C1558       C  0.77231477  0.54556431  0.91082981     0.16200
O1559       O  0.78427605  0.55354118  0.86458138    -0.26200
C1560       C  0.79757946  0.53002532  0.87444660     0.06000
C1561       C  0.79126745  0.52448503  0.90338087    -0.31100
O1562       O  0.72596711  0.58488631  0.96027759    -0.22900
C1563       C  0.71442499  0.60950409  0.95126027    -0.02900
C1564       C  0.72168041  0.61637048  0.92290833    -0.17300
H1565       H  0.75038530  0.60230236  0.86948717     0.20700
H1566       H  0.76061476  0.53703230  0.95557075     0.19000
H1567       H  0.79975768  0.50768645  0.91715046     0.19000
H1568       H  0.71561755  0.63525411  0.91063048     0.14800
C1569       C  0.93940420  0.58822652  0.75474067     0.30300
C1570       C  0.93314812  0.58063936  0.78348365    -0.36100
C1571       C  0.91171431  0.55954210  0.78736344     0.16300
C1572       C  0.89721238  0.54695822  0.76457874     0.22100
C1573       C  0.90374323  0.55424731  0.73585234    -0.34200
C1574       C  0.92534198  0.57515513  0.73195582     0.16200
O1575       O  0.95880655  0.60726711  0.74608416    -0.26200
C1576       C  0.95733673  0.60620795  0.71734916     0.06000
C1577       C  0.93695439  0.58651033  0.70738550    -0.31100
O1578       O  0.87707391  0.52871222  0.77317594    -0.22900
C1579       C  0.87864566  0.52958494  0.80188728    -0.02900
C1580       C  0.90018085  0.54806175  0.81189878    -0.17300
H1581       H  0.94411729  0.59054947  0.80153119     0.20700
H1582       H  0.89265089  0.54444503  0.71782294     0.19000
H1583       H  0.93173871  0.58111886  0.68525629     0.19000
H1584       H  0.90570876  0.55305022  0.83404733     0.14800
loop_ 
_geom_bond_atom_site_label_1 
_geom_bond_atom_site_label_2 
_geom_bond_distance 
_geom_bond_site_symmetry_2 
_ccdc_geom_bond_type 
C1            C2   1.420       .  A
C1            C6   1.426       .  A
C1         C1499   1.495       .  S
C2            C3   1.417       .  A
C2         C1528   1.495       .  S
C3            C4   1.421       .  A
C3         C1579   1.492       .  S
C4            C5   1.422       .  A
C4         C1512   1.489       .  S
C5            C6   1.423       .  A
C5         C1560   1.499       .  S
C6         C1547   1.490       .  S
N7            N8   1.321       .  A
N7           C11   1.344       .  A
N7          Cu15   2.067       .  S
N8            C9   1.345       .  A
N8          Cu14   2.070       .  S
C9           C10   1.383       .  A
C9           H12   1.083       .  S
C10          C11   1.381       .  A
C10        C1496   1.466       .  S
C11          H13   1.082       .  S
Cu14         N17   2.070       .  S
Cu15         N25   2.065       .  S
Cu16         N18   2.066       .  S
Cu16         N24   2.069       .  S
N17          N18   1.322       .  A
N17          C21   1.342       .  A
N18          C19   1.344       .  A
C19          C20   1.381       .  A
C19          H22   1.082       .  S
C20          C21   1.380       .  A
C20        C1467   1.462       .  S
C21          H23   1.082       .  S
N24          N25   1.322       .  A
N24          C28   1.345       .  A
N25          C26   1.343       .  A
C26          C27   1.380       .  A
C26          H29   1.083       .  S
C27          C28   1.381       .  A
C27        C1483   1.464       .  S
C28          H30   1.082       .  S
C31          C32   1.419       .  A
C31          C36   1.423       .  A
C31        C1480   1.492       .  S
C32          C33   1.414       .  A
C32        C1448   1.489       .  S
C33          C34   1.424       .  A
C33        C1416   1.492       .  S
C34          C35   1.425       .  A
C34        C1387   1.491       .  S
C35          C36   1.422       .  A
C35        C1403   1.500       .  S
C36        C1432   1.493       .  S
C37          C38   1.423       .  A
C37          C42   1.423       .  A
C37        C1304   1.488       .  S
C38          C39   1.416       .  A
C38        C1371   1.494       .  S
C39          C40   1.421       .  A
C39        C1339   1.490       .  S
C40          C41   1.423       .  A
C40        C1288   1.490       .  S
C41          C42   1.415       .  A
C41        C1323   1.487       .  S
C42        C1355   1.499       .  S
N43          N44   1.322       .  A
N43          C47   1.344       .  A
N43         Cu51   2.068       .  S
N44          C45   1.344       .  A
N44         Cu50   2.068       .  S
C45          C46   1.382       .  A
C45          H48   1.083       .  S
C46          C47   1.381       .  A
C46        C1384   1.466       .  S
C47          H49   1.082       .  S
Cu50         N53   2.071       .  S
Cu51         N61   2.065       .  S
Cu52         N54   2.066       .  S
Cu52         N60   2.067       .  S
N53          N54   1.322       .  A
N53          C57   1.344       .  A
N54          C55   1.344       .  A
C55          C56   1.381       .  A
C55          H58   1.082       .  S
C56          C57   1.381       .  A
C56        C1275   1.465       .  S
C57          H59   1.082       .  S
N60          N61   1.322       .  A
N60          C64   1.344       .  A
N61          C62   1.343       .  A
C62          C63   1.381       .  A
C62          H65   1.083       .  S
C63          C64   1.381       .  A
C63        C1291   1.463       .  S
C64          H66   1.083       .  S
C67          C68   1.422       .  A
C67          C72   1.421       .  A
C67        C1179   1.488       .  S
C68          C69   1.414       .  A
C68        C1211   1.491       .  S
C69          C70   1.423       .  A
C69        C1256   1.495       .  S
C70          C71   1.425       .  A
C70        C1195   1.485       .  S
C71          C72   1.418       .  A
C71        C1243   1.502       .  S
C72        C1224   1.490       .  S
N73          N74   1.324       .  A
N73          C77   1.347       .  A
N73         Cu81   2.075       .  S
N74          C75   1.340       .  A
N74         Cu80   2.063       .  S
C75          C76   1.376       .  A
C75          H78   1.082       .  S
C76          C77   1.382       .  A
C76        C1160   1.461       .  S
C77          H79   1.082       .  S
Cu80         N83   2.062       .  S
Cu81         N91   2.075       .  S
Cu82         N84   2.060       .  S
Cu82         N90   2.060       .  S
N83          N84   1.320       .  A
N83          C87   1.346       .  A
N84          C85   1.342       .  A
C85          C86   1.380       .  A
C85          H88   1.083       .  S
C86          C87   1.383       .  A
C86        C1176   1.463       .  S
C87          H89   1.083       .  S
N90          N91   1.322       .  A
N90          C94   1.340       .  A
N91          C92   1.347       .  A
C92          C93   1.383       .  A
C92          H95   1.082       .  S
C93          C94   1.379       .  A
C93        C1307   1.466       .  S
C94          H96   1.082       .  S
C97          C98   1.422       .  A
C97         C102   1.416       .  A
C97        C1067   1.486       .  S
C98          C99   1.421       .  A
C98        C1115   1.492       .  S
C99         C100   1.423       .  A
C99        C1144   1.500       .  S
C100        C101   1.420       .  A
C100       C1080   1.489       .  S
C101        C102   1.414       .  A
C101       C1131   1.484       .  S
C102       C1096   1.492       .  S
C103        C104   1.425       .  A
C103        C108   1.421       .  A
C103       C1163   1.486       .  S
C104        C105   1.420       .  A
C104       C1035   1.504       .  S
C105        C106   1.419       .  A
C105       C1003   1.485       .  S
C106        C107   1.415       .  A
C106        C987   1.488       .  S
C107        C108   1.413       .  A
C107       C1016   1.486       .  S
C108       C1048   1.488       .  S
N109        N110   1.322       .  A
N109        C113   1.343       .  A
N109       Cu117   2.067       .  S
N110        C111   1.345       .  A
N110       Cu116   2.068       .  S
C111        C112   1.381       .  A
C111        H114   1.082       .  S
C112        C113   1.381       .  A
C112        C984   1.464       .  S
C113        H115   1.082       .  S
Cu116       N119   2.065       .  S
Cu117       N127   2.070       .  S
Cu118       N120   2.067       .  S
Cu118       N126   2.065       .  S
N119        N120   1.322       .  A
N119        C123   1.343       .  A
N120        C121   1.345       .  A
C121        C122   1.380       .  A
C121        H124   1.083       .  S
C122        C123   1.380       .  A
C122       C1064   1.462       .  S
C123        H125   1.083       .  S
N126        N127   1.322       .  A
N126        C130   1.344       .  A
N127        C128   1.345       .  A
C128        C129   1.383       .  A
C128        H131   1.082       .  S
C129        C130   1.380       .  A
C129        C968   1.467       .  S
C130        H132   1.081       .  S
C133        C134   1.419       .  A
C133        C138   1.426       .  A
C133        C971   1.490       .  S
C134        C135   1.412       .  A
C134        C952   1.495       .  S
C135        C136   1.416       .  A
C135        C907   1.480       .  S
C136        C137   1.422       .  A
C136        C891   1.491       .  S
C137        C138   1.422       .  A
C137        C923   1.494       .  S
C138        C939   1.491       .  S
C139        C140   1.422       .  A
C139        C144   1.420       .  A
C139        C792   1.488       .  S
C140        C141   1.415       .  A
C140        C824   1.493       .  S
C141        C142   1.422       .  A
C141        C872   1.494       .  S
C142        C143   1.419       .  A
C142        C808   1.477       .  S
C143        C144   1.417       .  A
C143        C859   1.502       .  S
C144        C843   1.485       .  S
N145        N146   1.321       .  A
N145        C149   1.341       .  A
N145       Cu153   2.054       .  S
N146        C147   1.346       .  A
N146       Cu152   2.071       .  S
C147        C148   1.384       .  A
C147        H150   1.083       .  S
C148        C149   1.378       .  A
C148        C795   1.463       .  S
C149        H151   1.082       .  S
Cu152       N155   2.073       .  S
Cu153       N163   2.055       .  S
Cu154       N156   2.078       .  S
Cu154       N162   2.077       .  S
N155        N156   1.324       .  A
N155        C159   1.344       .  A
N156        C157   1.346       .  A
C157        C158   1.382       .  A
C157        H160   1.082       .  S
C158        C159   1.380       .  A
C158        C779   1.464       .  S
C159        H161   1.082       .  S
N162        N163   1.321       .  A
N162        C166   1.347       .  A
N163        C164   1.342       .  A
C164        C165   1.377       .  A
C164        H167   1.082       .  S
C165        C166   1.384       .  A
C165        C888   1.464       .  S
C166        H168   1.083       .  S
C169        C170   1.424       .  A
C169        C174   1.424       .  A
C169       C1272   1.491       .  S
C170        C171   1.416       .  A
C170        C731   1.490       .  S
C171        C172   1.419       .  A
C171        C744   1.495       .  S
C172        C173   1.423       .  A
C172        C776   1.485       .  S
C173        C174   1.423       .  A
C173        C763   1.497       .  S
C174        C715   1.500       .  S
C175        C176   1.422       .  A
C175        C180   1.419       .  A
C175        C632   1.487       .  S
C176        C177   1.417       .  A
C176        C696   1.491       .  S
C177        C178   1.422       .  A
C177        C667   1.499       .  S
C178        C179   1.424       .  A
C178        C616   1.484       .  S
C179        C180   1.417       .  A
C179        C651   1.497       .  S
C180        C680   1.488       .  S
C181        C182   1.421       .  A
C181        C186   1.415       .  A
C181       C1464   1.485       .  S
C182        C183   1.418       .  A
C182        C603   1.488       .  S
C183        C184   1.425       .  A
C183        C571   1.500       .  S
C184        C185   1.422       .  A
C184        C536   1.488       .  S
C185        C186   1.417       .  A
C185        C552   1.490       .  S
C186        C584   1.495       .  S
N187        N188   1.322       .  A
N187        C191   1.340       .  A
N187       Cu195   2.052       .  S
N188        C189   1.346       .  A
N188       Cu194   2.074       .  S
C189        C190   1.382       .  A
C189        H192   1.082       .  S
C190        C191   1.376       .  A
C190        C619   1.459       .  S
C191        H193   1.083       .  S
Cu194       N197   2.075       .  S
Cu195       N205   2.053       .  S
Cu196       N198   2.067       .  S
Cu196       N204   2.065       .  S
N197        N198   1.323       .  A
N197        C201   1.347       .  A
N198        C199   1.342       .  A
C199        C200   1.380       .  A
C199        H202   1.082       .  S
C200        C201   1.382       .  A
C200        C539   1.467       .  S
C201        H203   1.082       .  S
N204        N205   1.320       .  A
N204        C208   1.343       .  A
N205        C206   1.343       .  A
C206        C207   1.379       .  A
C206        H209   1.083       .  S
C207        C208   1.381       .  A
C207        C811   1.459       .  S
C208        H210   1.082       .  S
C211        C212   1.419       .  A
C211        C216   1.424       .  A
C211        C440   1.490       .  S
C212        C213   1.417       .  A
C212        C472   1.492       .  S
C213        C214   1.419       .  A
C213        C520   1.490       .  S
C214        C215   1.417       .  A
C214        C459   1.484       .  S
C215        C216   1.417       .  A
C215        C504   1.488       .  S
C216        C491   1.490       .  S
N217        N218   1.320       .  A
N217        C221   1.347       .  A
N217       Cu225   2.068       .  S
N218        C219   1.341       .  A
N218       Cu224   2.056       .  S
C219        C220   1.378       .  A
C219        H222   1.082       .  S
C220        C221   1.384       .  A
C220        C635   1.463       .  S
C221        H223   1.083       .  S
Cu224       N227   2.056       .  S
Cu225       N235   2.070       .  S
Cu226       N228   2.078       .  S
Cu226       N234   2.079       .  S
N227        N228   1.321       .  A
N227        C231   1.340       .  A
N228        C229   1.348       .  A
C229        C230   1.385       .  A
C229        H232   1.082       .  S
C230        C231   1.377       .  A
C230        C443   1.465       .  S
C231        H233   1.082       .  S
N234        N235   1.324       .  A
N234        C238   1.347       .  A
N235        C236   1.342       .  A
C236        C237   1.379       .  A
C236        H239   1.083       .  S
C237        C238   1.383       .  A
C237       C1083   1.465       .  S
C238        H240   1.083       .  S
N241        N242   1.322       .  A
N241        C245   1.342       .  A
N241       Cu249   2.063       .  S
N242        C243   1.345       .  A
N242       Cu248   2.070       .  S
C243        C244   1.381       .  A
C243        H246   1.082       .  S
C244        C245   1.380       .  A
C244        C456   1.461       .  S
C245        H247   1.082       .  S
Cu248       N251   2.068       .  S
Cu249       N259   2.065       .  S
Cu250       N252   2.068       .  S
Cu250       N258   2.065       .  S
N251        N252   1.322       .  A
N251        C255   1.344       .  A
N252        C253   1.344       .  A
C253        C254   1.382       .  A
C253        H256   1.082       .  S
C254        C255   1.381       .  A
C254       C1192   1.465       .  S
C255        H257   1.082       .  S
N258        N259   1.322       .  A
N258        C262   1.343       .  A
N259        C260   1.345       .  A
C260        C261   1.382       .  A
C260        H263   1.082       .  S
C261        C262   1.380       .  A
C261       C1515   1.464       .  S
C262        H264   1.081       .  S
O265       Cu273   2.012   1_655  S
O265        C275   1.278       .  A
O266       Cu273   2.032       .  S
O266        C276   1.280       .  A
O267       Cu273   2.025       .  S
O267        C277   1.279       .  A
O268       Cu273   2.011   1_655  S
O268        C278   1.277       .  A
O269       Cu274   2.020   1_655  S
O269        C278   1.278       .  A
O270       Cu274   2.002       .  S
O270        C277   1.275       .  A
O271       Cu274   2.013       .  S
O271        C276   1.277       .  A
O272       Cu274   2.031   1_655  S
O272        C275   1.280       .  A
Cu273      Cu274   2.375       .  S
C275       C1576   1.477       .  S
C276       C1032   1.473       .  S
C277       C1352   1.466       .  S
C278        C507   1.470       .  S
O279       Cu287   2.026       .  S
O279        C289   1.279       .  A
O280       Cu287   2.025   1_565  S
O280        C290   1.279       .  A
O281       Cu287   2.015   1_565  S
O281        C291   1.278       .  A
O282       Cu287   2.016       .  S
O282        C292   1.277       .  A
O283       Cu288   2.025       .  S
O283        C292   1.279       .  A
O284       Cu288   2.025   1_565  S
O284        C291   1.278       .  A
O285       Cu288   2.000   1_565  S
O285        C290   1.276       .  A
O286       Cu288   2.005       .  S
O286        C289   1.277       .  A
Cu287      Cu288   2.371       .  S
C289       C1435   1.473       .  S
C290        C523   1.470       .  S
C291       C1240   1.471       .  S
C292        C587   1.470       .  S
O293       Cu301   2.012       .  S
O293        C303   1.276       .  A
O294       Cu301   2.028   1_556  S
O294        C304   1.280       .  A
O295       Cu301   2.016   1_556  S
O295        C305   1.278       .  A
O296       Cu301   2.010       .  S
O296        C306   1.277       .  A
O297       Cu302   2.012       .  S
O297        C306   1.278       .  A
O298       Cu302   2.014   1_556  S
O298        C305   1.277       .  A
O299       Cu302   2.009   1_556  S
O299        C304   1.277       .  A
O300       Cu302   2.027       .  S
O300        C303   1.280       .  A
Cu301      Cu302   2.374       .  S
C303        C683   1.472       .  S
C304       C1259   1.473       .  S
C305       C1563   1.466       .  S
C306       C1128   1.467       .  S
O307       Cu315   2.016   1_565  S
O307        C317   1.278       .  A
O308       Cu315   2.016       .  S
O308        C318   1.277       .  A
O309       Cu315   2.002       .  S
O309        C319   1.276       .  A
O310       Cu315   2.024   1_565  S
O310        C320   1.280       .  A
O311       Cu316   2.016   1_565  S
O311        C320   1.277       .  A
O312       Cu316   2.028       .  S
O312        C319   1.280       .  A
O313       Cu316   2.012       .  S
O313        C318   1.277       .  A
O314       Cu316   2.009   1_565  S
O314        C317   1.277       .  A
Cu315      Cu316   2.374       .  S
C317       C1051   1.468       .  S
C318       C1400   1.466       .  S
C319        C728   1.469       .  S
C320       C1227   1.475       .  S
O321       Cu329   2.022   1_655  S
O321        C331   1.278       .  A
O322       Cu329   2.025       .  S
O322        C332   1.278       .  A
O323       Cu329   2.002       .  S
O323        C333   1.276       .  A
O324       Cu329   2.005   1_655  S
O324        C334   1.276       .  A
O325       Cu330   2.025   1_655  S
O325        C334   1.279       .  A
O326       Cu330   2.029       .  S
O326        C333   1.279       .  A
O327       Cu330   2.019       .  S
O327        C332   1.278       .  A
O328       Cu330   2.016   1_655  S
O328        C331   1.277       .  A
Cu329      Cu330   2.370       .  S
C331       C1531   1.469       .  S
C332        C712   1.472       .  S
C333       C1320   1.470       .  S
C334        C600   1.470       .  S
O335       Cu343   2.021   1_556  S
O335        C345   1.279       .  A
O336       Cu343   2.019       .  S
O336        C346   1.278       .  A
O337       Cu343   2.002       .  S
O337        C347   1.276       .  A
O338       Cu343   2.018   1_556  S
O338        C348   1.279       .  A
O339       Cu344   2.019   1_556  S
O339        C348   1.278       .  A
O340       Cu344   2.031       .  S
O340        C347   1.280       .  A
O341       Cu344   2.007       .  S
O341        C346   1.276       .  A
O342       Cu344   2.010   1_556  S
O342        C345   1.278       .  A
Cu343      Cu344   2.374       .  S
C345       C1208   1.472       .  S
C346        C936   1.464       .  S
C347       C1099   1.472       .  S
C348       C1368   1.475       .  S
O349       Cu357   2.019   1_556  S
O349        C359   1.278       .  A
O350       Cu357   2.022       .  S
O350        C360   1.279       .  A
O351       Cu357   2.001       .  S
O351        C361   1.276       .  A
O352       Cu357   2.001   1_556  S
O352        C362   1.277       .  A
O353       Cu358   2.022   1_556  S
O353        C362   1.278       .  A
O354       Cu358   2.027       .  S
O354        C361   1.280       .  A
O355       Cu358   2.025       .  S
O355        C360   1.279       .  A
O356       Cu358   2.023   1_556  S
O356        C359   1.278       .  A
Cu357      Cu358   2.374       .  S
C359       C1451   1.473       .  S
C360        C648   1.478       .  S
C361        C875   1.470       .  S
C362       C1544   1.470       .  S
O363       Cu371   2.024       .  S
O363        C373   1.279       .  A
O364       Cu371   2.012   1_545  S
O364        C374   1.277       .  A
O365       Cu371   2.015   1_545  S
O365        C375   1.277       .  A
O366       Cu371   2.024       .  S
O366        C376   1.279       .  A
O367       Cu372   2.004       .  S
O367        C376   1.276       .  A
O368       Cu372   2.023   1_545  S
O368        C375   1.280       .  A
O369       Cu372   2.018   1_545  S
O369        C374   1.279       .  A
O370       Cu372   2.010       .  S
O370        C373   1.276       .  A
Cu371      Cu372   2.376       .  S
C373       C1147   1.469       .  S
C374        C555   1.472       .  S
C375        C856   1.476       .  S
C376        C475   1.465       .  S
O377       Cu385   2.021       .  S
O377        C387   1.279       .  A
O378       Cu385   2.025   1_655  S
O378        C388   1.279       .  A
O379       Cu385   2.021   1_655  S
O379        C389   1.279       .  A
O380       Cu385   2.024       .  S
O380        C390   1.278       .  A
O381       Cu386   2.006       .  S
O381        C390   1.278       .  A
O382       Cu386   2.008   1_655  S
O382        C389   1.277       .  A
O383       Cu386   2.005   1_655  S
O383        C388   1.277       .  A
O384       Cu386   2.004       .  S
O384        C387   1.277       .  A
Cu385      Cu386   2.375       .  S
C387        C955   1.470       .  S
C388        C488   1.472       .  S
C389        C699   1.471       .  S
C390       C1000   1.470       .  S
O391       Cu399   2.005   1_655  S
O391        C401   1.276       .  A
O392       Cu399   2.013       .  S
O392        C402   1.278       .  A
O393       Cu399   2.023       .  S
O393        C403   1.280       .  A
O394       Cu399   2.006   1_655  S
O394        C404   1.276       .  A
O395       Cu400   2.032   1_655  S
O395        C404   1.280       .  A
O396       Cu400   2.010       .  S
O396        C403   1.277       .  A
O397       Cu400   2.005       .  S
O397        C402   1.276       .  A
O398       Cu400   2.016   1_655  S
O398        C401   1.278       .  A
Cu399      Cu400   2.377       .  S
C401        C568   1.464       .  S
C402        C904   1.463       .  S
C403        C760   1.473       .  S
C404        C664   1.469       .  S
O405       Cu413   1.995   1_545  S
O405        C415   1.276       .  A
O406       Cu413   2.006       .  S
O406        C416   1.278       .  A
O407       Cu413   2.008       .  S
O407        C417   1.277       .  A
O408       Cu413   2.008   1_545  S
O408        C418   1.276       .  A
O409       Cu414   2.006   1_545  S
O409        C418   1.276       .  A
O410       Cu414   2.004       .  S
O410        C417   1.276       .  A
O411       Cu414   2.024       .  S
O411        C416   1.278       .  A
O412       Cu414   2.034   1_545  S
O412        C415   1.280       .  A
Cu413      Cu414   2.377       .  S
C415        C747   1.472       .  S
C416       C1112   1.472       .  S
C417       C1019   1.463       .  S
C418        C840   1.458       .  S
O419       Cu427   2.018   1_556  S
O419        C429   1.278       .  A
O420       Cu427   2.015       .  S
O420        C430   1.278       .  A
O421       Cu427   2.014       .  S
O421        C431   1.278       .  A
O422       Cu427   2.013   1_556  S
O422        C432   1.278       .  A
O423       Cu428   2.020   1_556  S
O423        C432   1.278       .  A
O424       Cu428   2.024       .  S
O424        C431   1.279       .  A
O425       Cu428   2.024       .  S
O425        C430   1.279       .  A
O426       Cu428   2.026   1_556  S
O426        C429   1.279       .  A
Cu427      Cu428   2.374       .  S
C429       C1336   1.474       .  S
C430        C827   1.474       .  S
C431        C920   1.475       .  S
C432       C1419   1.473       .  S
C433        C438   1.379       .  A
C433        C434   1.404       .  A
C433        O439   1.316       .  A
C434        C435   1.403       .  A
C434        H445   1.081       .  S
C435        C444   1.365       .  A
C435        C436   1.381       .  A
C436        C437   1.401       .  A
C436        O442   1.314       .  A
C437        C438   1.399       .  A
C437        H446   1.081       .  S
C438        C441   1.359       .  A
O439        C440   1.333       .  A
C440        C441   1.392       .  A
C441        H447   1.081       .  S
O442        C443   1.329       .  A
C443        C444   1.390       .  A
C444        H448   1.082       .  S
C449        C454   1.381       .  A
C449        C450   1.403       .  A
C449        O455   1.317       .  A
C450        C451   1.401       .  A
C450        H461   1.080       .  S
C451        C460   1.360       .  A
C451        C452   1.380       .  A
C452        C453   1.401       .  A
C452        O458   1.314       .  A
C453        C454   1.400       .  A
C453        H462   1.081       .  S
C454        C457   1.359       .  A
O455        C456   1.330       .  A
C456        C457   1.388       .  A
C457        H463   1.082       .  S
O458        C459   1.329       .  A
C459        C460   1.393       .  A
C460        H464   1.082       .  S
C465        C470   1.379       .  A
C465        C466   1.404       .  A
C465        O471   1.318       .  A
C466        C467   1.403       .  A
C466        H477   1.081       .  S
C467        C476   1.364       .  A
C467        C468   1.381       .  A
C468        C469   1.404       .  A
C468        O474   1.319       .  A
C469        C470   1.403       .  A
C469        H478   1.081       .  S
C470        C473   1.362       .  A
O471        C472   1.332       .  A
C472        C473   1.394       .  A
C473        H479   1.082       .  S
O474        C475   1.330       .  A
C475        C476   1.389       .  A
C476        H480   1.082       .  S
C481        C486   1.380       .  A
C481        C482   1.405       .  A
C481        O487   1.322       .  A
C482        C483   1.405       .  A
C482        H493   1.081       .  S
C483        C492   1.361       .  A
C483        C484   1.379       .  A
C484        C485   1.402       .  A
C484        O490   1.319       .  A
C485        C486   1.403       .  A
C485        H494   1.081       .  S
C486        C489   1.360       .  A
O487        C488   1.332       .  A
C488        C489   1.391       .  A
C489        H495   1.082       .  S
O490        C491   1.332       .  A
C491        C492   1.394       .  A
C492        H496   1.081       .  S
C497        C502   1.379       .  A
C497        C498   1.405       .  A
C497        O503   1.319       .  A
C498        C499   1.405       .  A
C498        H509   1.081       .  S
C499        C508   1.365       .  A
C499        C500   1.380       .  A
C500        C501   1.404       .  A
C500        O506   1.319       .  A
C501        C502   1.403       .  A
C501        H510   1.081       .  S
C502        C505   1.362       .  A
O503        C504   1.331       .  A
C504        C505   1.391       .  A
C505        H511   1.082       .  S
O506        C507   1.331       .  A
C507        C508   1.392       .  A
C508        H512   1.082       .  S
C513        C518   1.380       .  A
C513        C514   1.402       .  A
C513        O519   1.317       .  A
C514        C515   1.402       .  A
C514        H525   1.081       .  S
C515        C524   1.359       .  A
C515        C516   1.381       .  A
C516        C517   1.405       .  A
C516        O522   1.321       .  A
C517        C518   1.404       .  A
C517        H526   1.081       .  S
C518        C521   1.362       .  A
O519        C520   1.331       .  A
C520        C521   1.393       .  A
C521        H527   1.082       .  S
O522        C523   1.331       .  A
C523        C524   1.391       .  A
C524        H528   1.082       .  S
C529        C534   1.380       .  A
C529        C530   1.401       .  A
C529        O535   1.317       .  A
C530        C531   1.401       .  A
C530        H541   1.081       .  S
C531        C540   1.358       .  A
C531        C532   1.381       .  A
C532        C533   1.403       .  A
C532        O538   1.320       .  A
C533        C534   1.403       .  A
C533        H542   1.082       .  S
C534        C537   1.360       .  A
O535        C536   1.330       .  A
C536        C537   1.394       .  A
C537        H543   1.082       .  S
O538        C539   1.330       .  A
C539        C540   1.390       .  A
C540        H544   1.082       .  S
C545        C550   1.380       .  A
C545        C546   1.404       .  A
C545        O551   1.319       .  A
C546        C547   1.403       .  A
C546        H557   1.081       .  S
C547        C556   1.362       .  A
C547        C548   1.380       .  A
C548        C549   1.405       .  A
C548        O554   1.320       .  A
C549        C550   1.404       .  A
C549        H558   1.081       .  S
C550        C553   1.362       .  A
O551        C552   1.332       .  A
C552        C553   1.393       .  A
C553        H559   1.082       .  S
O554        C555   1.332       .  A
C555        C556   1.392       .  A
C556        H560   1.082       .  S
C561        C566   1.381       .  A
C561        C562   1.404       .  A
C561        O567   1.320       .  A
C562        C563   1.403       .  A
C562        H573   1.081       .  S
C563        C572   1.360       .  A
C563        C564   1.378       .  A
C564        C565   1.403       .  A
C564        O570   1.318       .  A
C565        C566   1.403       .  A
C565        H574   1.081       .  S
C566        C569   1.361       .  A
O567        C568   1.330       .  A
C568        C569   1.390       .  A
C569        H575   1.082       .  S
O570        C571   1.333       .  A
C571        C572   1.396       .  A
C572        H576   1.082       .  S
C577        C582   1.379       .  A
C577        C578   1.406       .  A
C577        O583   1.319       .  A
C578        C579   1.405       .  A
C578        H589   1.081       .  S
C579        C588   1.367       .  A
C579        C580   1.380       .  A
C580        C581   1.405       .  A
C580        O586   1.319       .  A
C581        C582   1.403       .  A
C581        H590   1.081       .  S
C582        C585   1.364       .  A
O583        C584   1.333       .  A
C584        C585   1.394       .  A
C585        H591   1.082       .  S
O586        C587   1.331       .  A
C587        C588   1.391       .  A
C588        H592   1.082       .  S
C593        C598   1.380       .  A
C593        C594   1.402       .  A
C593        O599   1.317       .  A
C594        C595   1.401       .  A
C594        H605   1.081       .  S
C595        C604   1.360       .  A
C595        C596   1.380       .  A
C596        C597   1.407       .  A
C596        O602   1.321       .  A
C597        C598   1.406       .  A
C597        H606   1.081       .  S
C598        C601   1.367       .  A
O599        C600   1.330       .  A
C600        C601   1.393       .  A
C601        H607   1.082       .  S
O602        C603   1.333       .  A
C603        C604   1.392       .  A
C604        H608   1.082       .  S
C609        C614   1.379       .  A
C609        C610   1.400       .  A
C609        O615   1.313       .  A
C610        C611   1.398       .  A
C610        H621   1.081       .  S
C611        C620   1.361       .  A
C611        C612   1.381       .  A
C612        C613   1.402       .  A
C612        O618   1.314       .  A
C613        C614   1.399       .  A
C613        H622   1.081       .  S
C614        C617   1.360       .  A
O615        C616   1.330       .  A
C616        C617   1.393       .  A
C617        H623   1.081       .  S
O618        C619   1.329       .  A
C619        C620   1.387       .  A
C620        H624   1.082       .  S
C625        C630   1.379       .  A
C625        C626   1.403       .  A
C625        O631   1.315       .  A
C626        C627   1.401       .  A
C626        H637   1.080       .  S
C627        C636   1.363       .  A
C627        C628   1.381       .  A
C628        C629   1.402       .  A
C628        O634   1.315       .  A
C629        C630   1.399       .  A
C629        H638   1.080       .  S
C630        C633   1.360       .  A
O631        C632   1.330       .  A
C632        C633   1.392       .  A
C633        H639   1.082       .  S
O634        C635   1.329       .  A
C635        C636   1.389       .  A
C636        H640   1.082       .  S
C641        C646   1.380       .  A
C641        C642   1.405       .  A
C641        O647   1.322       .  A
C642        C643   1.404       .  A
C642        H653   1.083       .  S
C643        C652   1.362       .  A
C643        C644   1.379       .  A
C644        C645   1.407       .  A
C644        O650   1.323       .  A
C645        C646   1.407       .  A
C645        H654   1.084       .  S
C646        C649   1.366       .  A
O647        C648   1.332       .  A
C648        C649   1.394       .  A
C649        H655   1.083       .  S
O650        C651   1.335       .  A
C651        C652   1.393       .  A
C652        H656   1.081       .  S
C657        C662   1.380       .  A
C657        C658   1.405       .  A
C657        O663   1.321       .  A
C658        C659   1.404       .  A
C658        H669   1.081       .  S
C659        C668   1.363       .  A
C659        C660   1.379       .  A
C660        C661   1.406       .  A
C660        O666   1.321       .  A
C661        C662   1.405       .  A
C661        H670   1.081       .  S
C662        C665   1.365       .  A
O663        C664   1.331       .  A
C664        C665   1.390       .  A
C665        H671   1.082       .  S
O666        C667   1.334       .  A
C667        C668   1.395       .  A
C668        H672   1.082       .  S
C673        C678   1.380       .  A
C673        C674   1.404       .  A
C673        O679   1.320       .  A
C674        C675   1.404       .  A
C674        H685   1.081       .  S
C675        C684   1.363       .  A
C675        C676   1.380       .  A
C676        C677   1.406       .  A
C676        O682   1.321       .  A
C677        C678   1.405       .  A
C677        H686   1.081       .  S
C678        C681   1.364       .  A
O679        C680   1.331       .  A
C680        C681   1.392       .  A
C681        H687   1.082       .  S
O682        C683   1.332       .  A
C683        C684   1.391       .  A
C684        H688   1.082       .  S
C689        C694   1.380       .  A
C689        C690   1.406       .  A
C689        O695   1.320       .  A
C690        C691   1.405       .  A
C690        H701   1.081       .  S
C691        C700   1.365       .  A
C691        C692   1.380       .  A
C692        C693   1.403       .  A
C692        O698   1.318       .  A
C693        C694   1.402       .  A
C693        H702   1.081       .  S
C694        C697   1.361       .  A
O695        C696   1.333       .  A
C696        C697   1.393       .  A
C697        H703   1.082       .  S
O698        C699   1.331       .  A
C699        C700   1.392       .  A
C700        H704   1.082       .  S
C705        C710   1.381       .  A
C705        C706   1.406       .  A
C705        O711   1.323       .  A
C706        C707   1.406       .  A
C706        H717   1.081       .  S
C707        C716   1.363       .  A
C707        C708   1.379       .  A
C708        C709   1.405       .  A
C708        O714   1.322       .  A
C709        C710   1.406       .  A
C709        H718   1.081       .  S
C710        C713   1.363       .  A
O711        C712   1.332       .  A
C712        C713   1.391       .  A
C713        H719   1.082       .  S
O714        C715   1.333       .  A
C715        C716   1.396       .  A
C716        H720   1.082       .  S
C721        C726   1.380       .  A
C721        C722   1.404       .  A
C721        O727   1.318       .  A
C722        C723   1.402       .  A
C722        H733   1.081       .  S
C723        C732   1.363       .  A
C723        C724   1.379       .  A
C724        C725   1.405       .  A
C724        O730   1.318       .  A
C725        C726   1.404       .  A
C725        H734   1.081       .  S
C726        C729   1.365       .  A
O727        C728   1.331       .  A
C728        C729   1.391       .  A
C729        H735   1.082       .  S
O730        C731   1.331       .  A
C731        C732   1.393       .  A
C732        H736   1.082       .  S
C737        C742   1.379       .  A
C737        C738   1.402       .  A
C737        O743   1.319       .  A
C738        C739   1.403       .  A
C738        H749   1.081       .  S
C739        C748   1.359       .  A
C739        C740   1.381       .  A
C740        C741   1.405       .  A
C740        O746   1.323       .  A
C741        C742   1.405       .  A
C741        H750   1.081       .  S
C742        C745   1.362       .  A
O743        C744   1.332       .  A
C744        C745   1.394       .  A
C745        H751   1.081       .  S
O746        C747   1.332       .  A
C747        C748   1.391       .  A
C748        H752   1.082       .  S
C753        C758   1.380       .  A
C753        C754   1.406       .  A
C753        O759   1.320       .  A
C754        C755   1.404       .  A
C754        H765   1.081       .  S
C755        C764   1.365       .  A
C755        C756   1.378       .  A
C756        C757   1.403       .  A
C756        O762   1.316       .  A
C757        C758   1.402       .  A
C757        H766   1.081       .  S
C758        C761   1.363       .  A
O759        C760   1.332       .  A
C760        C761   1.391       .  A
C761        H767   1.082       .  S
O762        C763   1.331       .  A
C763        C764   1.396       .  A
C764        H768   1.082       .  S
C769        C774   1.380       .  A
C769        C770   1.404       .  A
C769        O775   1.316       .  A
C770        C771   1.402       .  A
C770        H781   1.081       .  S
C771        C780   1.364       .  A
C771        C772   1.381       .  A
C772        C773   1.403       .  A
C772        O778   1.316       .  A
C773        C774   1.401       .  A
C773        H782   1.081       .  S
C774        C777   1.362       .  A
O775        C776   1.331       .  A
C776        C777   1.391       .  A
C777        H783   1.082       .  S
O778        C779   1.329       .  A
C779        C780   1.389       .  A
C780        H784   1.082       .  S
C785        C790   1.379       .  A
C785        C786   1.403       .  A
C785        O791   1.316       .  A
C786        C787   1.401       .  A
C786        H797   1.081       .  S
C787        C796   1.363       .  A
C787        C788   1.381       .  A
C788        C789   1.402       .  A
C788        O794   1.315       .  A
C789        C790   1.400       .  A
C789        H798   1.081       .  S
C790        C793   1.360       .  A
O791        C792   1.331       .  A
C792        C793   1.392       .  A
C793        H799   1.082       .  S
O794        C795   1.329       .  A
C795        C796   1.389       .  A
C796        H800   1.082       .  S
C801        C806   1.381       .  A
C801        C802   1.402       .  A
C801        O807   1.318       .  A
C802        C803   1.402       .  A
C802        H813   1.081       .  S
C803        C812   1.359       .  A
C803        C804   1.382       .  A
C804        C805   1.399       .  A
C804        O810   1.316       .  A
C805        C806   1.398       .  A
C805        H814   1.082       .  S
C806        C809   1.354       .  A
O807        C808   1.330       .  A
C808        C809   1.390       .  A
C809        H815   1.082       .  S
O810        C811   1.327       .  A
C811        C812   1.390       .  A
C812        H816   1.082       .  S
C817        C822   1.379       .  A
C817        C818   1.406       .  A
C817        O823   1.321       .  A
C818        C819   1.405       .  A
C818        H829   1.081       .  S
C819        C828   1.366       .  A
C819        C820   1.380       .  A
C820        C821   1.405       .  A
C820        O826   1.320       .  A
C821        C822   1.404       .  A
C821        H830   1.081       .  S
C822        C825   1.363       .  A
O823        C824   1.332       .  A
C824        C825   1.394       .  A
C825        H831   1.082       .  S
O826        C827   1.332       .  A
C827        C828   1.393       .  A
C828        H832   1.082       .  S
C833        C838   1.381       .  A
C833        C834   1.402       .  A
C833        O839   1.316       .  A
C834        C835   1.400       .  A
C834        H845   1.081       .  S
C835        C844   1.360       .  A
C835        C836   1.380       .  A
C836        C837   1.403       .  A
C836        O842   1.317       .  A
C837        C838   1.402       .  A
C837        H846   1.081       .  S
C838        C841   1.363       .  A
O839        C840   1.328       .  A
C840        C841   1.389       .  A
C841        H847   1.082       .  S
O842        C843   1.331       .  A
C843        C844   1.391       .  A
C844        H848   1.082       .  S
C849        C854   1.380       .  A
C849        C850   1.409       .  A
C849        O855   1.323       .  A
C850        C851   1.408       .  A
C850        H861   1.081       .  S
C851        C860   1.369       .  A
C851        C852   1.378       .  A
C852        C853   1.403       .  A
C852        O858   1.316       .  A
C853        C854   1.401       .  A
C853        H862   1.081       .  S
C854        C857   1.362       .  A
O855        C856   1.334       .  A
C856        C857   1.391       .  A
C857        H863   1.082       .  S
O858        C859   1.330       .  A
C859        C860   1.398       .  A
C860        H864   1.082       .  S
C865        C870   1.378       .  A
C865        C866   1.406       .  A
C865        O871   1.320       .  A
C866        C867   1.406       .  A
C866        H877   1.081       .  S
C867        C876   1.367       .  A
C867        C868   1.380       .  A
C868        C869   1.402       .  A
C868        O874   1.316       .  A
C869        C870   1.400       .  A
C869        H878   1.081       .  S
C870        C873   1.358       .  A
O871        C872   1.333       .  A
C872        C873   1.393       .  A
C873        H879   1.081       .  S
O874        C875   1.330       .  A
C875        C876   1.393       .  A
C876        H880   1.082       .  S
C881        C886   1.381       .  A
C881        C882   1.405       .  A
C881        O887   1.317       .  A
C882        C883   1.402       .  A
C882        H893   1.081       .  S
C883        C892   1.363       .  A
C883        C884   1.379       .  A
C884        C885   1.401       .  A
C884        O890   1.313       .  A
C885        C886   1.399       .  A
C885        H894   1.081       .  S
C886        C889   1.362       .  A
O887        C888   1.331       .  A
C888        C889   1.388       .  A
C889        H895   1.082       .  S
O890        C891   1.329       .  A
C891        C892   1.395       .  A
C892        H896   1.082       .  S
C897        C902   1.381       .  A
C897        C898   1.401       .  A
C897        O903   1.317       .  A
C898        C899   1.400       .  A
C898        H909   1.081       .  S
C899        C908   1.359       .  A
C899        C900   1.381       .  A
C900        C901   1.404       .  A
C900        O906   1.318       .  A
C901        C902   1.403       .  A
C901        H910   1.081       .  S
C902        C905   1.363       .  A
O903        C904   1.329       .  A
C904        C905   1.391       .  A
C905        H911   1.082       .  S
O906        C907   1.330       .  A
C907        C908   1.389       .  A
C908        H912   1.082       .  S
C913        C918   1.380       .  A
C913        C914   1.408       .  A
C913        O919   1.322       .  A
C914        C915   1.407       .  A
C914        H925   1.081       .  S
C915        C924   1.367       .  A
C915        C916   1.379       .  A
C916        C917   1.403       .  A
C916        O922   1.317       .  A
C917        C918   1.402       .  A
C917        H926   1.081       .  S
C918        C921   1.362       .  A
O919        C920   1.333       .  A
C920        C921   1.391       .  A
C921        H927   1.082       .  S
O922        C923   1.332       .  A
C923        C924   1.395       .  A
C924        H928   1.082       .  S
C929        C934   1.381       .  A
C929        C930   1.403       .  A
C929        O935   1.321       .  A
C930        C931   1.403       .  A
C930        H941   1.081       .  S
C931        C940   1.360       .  A
C931        C932   1.380       .  A
C932        C933   1.403       .  A
C932        O938   1.320       .  A
C933        C934   1.404       .  A
C933        H942   1.081       .  S
C934        C937   1.361       .  A
O935        C936   1.330       .  A
C936        C937   1.389       .  A
C937        H943   1.082       .  S
O938        C939   1.332       .  A
C939        C940   1.394       .  A
C940        H944   1.082       .  S
C945        C950   1.379       .  A
C945        C946   1.403       .  A
C945        O951   1.319       .  A
C946        C947   1.403       .  A
C946        H957   1.081       .  S
C947        C956   1.361       .  A
C947        C948   1.381       .  A
C948        C949   1.404       .  A
C948        O954   1.321       .  A
C949        C950   1.403       .  A
C949        H958   1.081       .  S
C950        C953   1.360       .  A
O951        C952   1.333       .  A
C952        C953   1.394       .  A
C953        H959   1.081       .  S
O954        C955   1.331       .  A
C955        C956   1.392       .  A
C956        H960   1.082       .  S
C961        C966   1.381       .  A
C961        C962   1.403       .  A
C961        O967   1.318       .  A
C962        C963   1.402       .  A
C962        H973   1.081       .  S
C963        C972   1.360       .  A
C963        C964   1.379       .  A
C964        C965   1.402       .  A
C964        O970   1.317       .  A
C965        C966   1.402       .  A
C965        H974   1.081       .  S
C966        C969   1.361       .  A
O967        C968   1.330       .  A
C968        C969   1.391       .  A
C969        H975   1.082       .  S
O970        C971   1.332       .  A
C971        C972   1.393       .  A
C972        H976   1.082       .  S
C977        C982   1.381       .  A
C977        C978   1.405       .  A
C977        O983   1.319       .  A
C978        C979   1.403       .  A
C978        H989   1.081       .  S
C979        C988   1.362       .  A
C979        C980   1.379       .  A
C980        C981   1.400       .  A
C980        O986   1.315       .  A
C981        C982   1.399       .  A
C981        H990   1.081       .  S
C982        C985   1.359       .  A
O983        C984   1.331       .  A
C984        C985   1.388       .  A
C985        H991   1.082       .  S
O986        C987   1.329       .  A
C987        C988   1.394       .  A
C988        H992   1.082       .  S
C993        C998   1.380       .  A
C993        C994   1.408       .  A
C993        O999   1.323       .  A
C994        C995   1.407       .  A
C994       H1005   1.081       .  S
C995       C1004   1.366       .  A
C995        C996   1.380       .  A
C996        C997   1.400       .  A
C996       O1002   1.315       .  A
C997        C998   1.399       .  A
C997       H1006   1.081       .  S
C998       C1001   1.358       .  A
O999       C1000   1.333       .  A
C1000      C1001   1.389       .  A
C1001      H1007   1.082       .  S
O1002      C1003   1.328       .  A
C1003      C1004   1.394       .  A
C1004      H1008   1.082       .  S
C1009      C1014   1.379       .  A
C1009      C1010   1.403       .  A
C1009      O1015   1.319       .  A
C1010      C1011   1.403       .  A
C1010      H1021   1.083       .  S
C1011      C1020   1.361       .  A
C1011      C1012   1.381       .  A
C1012      C1013   1.401       .  A
C1012      O1018   1.318       .  A
C1013      C1014   1.400       .  A
C1013      H1022   1.083       .  S
C1014      C1017   1.357       .  A
O1015      C1016   1.332       .  A
C1016      C1017   1.390       .  A
C1017      H1023   1.080       .  S
O1018      C1019   1.329       .  A
C1019      C1020   1.390       .  A
C1020      H1024   1.083       .  S
C1025      C1030   1.380       .  A
C1025      C1026   1.405       .  A
C1025      O1031   1.322       .  A
C1026      C1027   1.405       .  A
C1026      H1037   1.081       .  S
C1027      C1036   1.361       .  A
C1027      C1028   1.378       .  A
C1028      C1029   1.406       .  A
C1028      O1034   1.322       .  A
C1029      C1030   1.407       .  A
C1029      H1038   1.081       .  S
C1030      C1033   1.366       .  A
O1031      C1032   1.331       .  A
C1032      C1033   1.392       .  A
C1033      H1039   1.082       .  S
O1034      C1035   1.334       .  A
C1035      C1036   1.397       .  A
C1036      H1040   1.082       .  S
C1041      C1046   1.379       .  A
C1041      C1042   1.407       .  A
C1041      O1047   1.323       .  A
C1042      C1043   1.407       .  A
C1042      H1053   1.083       .  S
C1043      C1052   1.365       .  A
C1043      C1044   1.381       .  A
C1044      C1045   1.400       .  A
C1044      O1050   1.318       .  A
C1045      C1046   1.400       .  A
C1045      H1054   1.083       .  S
C1046      C1049   1.357       .  A
O1047      C1048   1.334       .  A
C1048      C1049   1.389       .  A
C1049      H1055   1.081       .  S
O1050      C1051   1.329       .  A
C1051      C1052   1.393       .  A
C1052      H1056   1.083       .  S
C1057      C1062   1.381       .  A
C1057      C1058   1.405       .  A
C1057      O1063   1.318       .  A
C1058      C1059   1.403       .  A
C1058      H1069   1.081       .  S
C1059      C1068   1.363       .  A
C1059      C1060   1.379       .  A
C1060      C1061   1.399       .  A
C1060      O1066   1.313       .  A
C1061      C1062   1.398       .  A
C1061      H1070   1.081       .  S
C1062      C1065   1.358       .  A
O1063      C1064   1.331       .  A
C1064      C1065   1.387       .  A
C1065      H1071   1.082       .  S
O1066      C1067   1.328       .  A
C1067      C1068   1.394       .  A
C1068      H1072   1.082       .  S
C1073      C1078   1.379       .  A
C1073      C1074   1.405       .  A
C1073      O1079   1.318       .  A
C1074      C1075   1.404       .  A
C1074      H1085   1.082       .  S
C1075      C1084   1.365       .  A
C1075      C1076   1.381       .  A
C1076      C1077   1.400       .  A
C1076      O1082   1.314       .  A
C1077      C1078   1.398       .  A
C1077      H1086   1.082       .  S
C1078      C1081   1.357       .  A
O1079      C1080   1.333       .  A
C1080      C1081   1.391       .  A
C1081      H1087   1.081       .  S
O1082      C1083   1.328       .  A
C1083      C1084   1.391       .  A
C1084      H1088   1.082       .  S
C1089      C1094   1.379       .  A
C1089      C1090   1.403       .  A
C1089      O1095   1.319       .  A
C1090      C1091   1.403       .  A
C1090      H1101   1.083       .  S
C1091      C1100   1.360       .  A
C1091      C1092   1.380       .  A
C1092      C1093   1.405       .  A
C1092      O1098   1.322       .  A
C1093      C1094   1.405       .  A
C1093      H1102   1.083       .  S
C1094      C1097   1.362       .  A
O1095      C1096   1.332       .  A
C1096      C1097   1.393       .  A
C1097      H1103   1.080       .  S
O1098      C1099   1.332       .  A
C1099      C1100   1.391       .  A
C1100      H1104   1.083       .  S
C1105      C1110   1.380       .  A
C1105      C1106   1.410       .  A
C1105      O1111   1.324       .  A
C1106      C1107   1.408       .  A
C1106      H1117   1.081       .  S
C1107      C1116   1.368       .  A
C1107      C1108   1.379       .  A
C1108      C1109   1.399       .  A
C1108      O1114   1.313       .  A
C1109      C1110   1.398       .  A
C1109      H1118   1.081       .  S
C1110      C1113   1.357       .  A
O1111      C1112   1.334       .  A
C1112      C1113   1.389       .  A
C1113      H1119   1.082       .  S
O1114      C1115   1.328       .  A
C1115      C1116   1.396       .  A
C1116      H1120   1.082       .  S
C1121      C1126   1.381       .  A
C1121      C1122   1.401       .  A
C1121      O1127   1.319       .  A
C1122      C1123   1.401       .  A
C1122      H1133   1.082       .  S
C1123      C1132   1.358       .  A
C1123      C1124   1.380       .  A
C1124      C1125   1.404       .  A
C1124      O1130   1.320       .  A
C1125      C1126   1.405       .  A
C1125      H1134   1.083       .  S
C1126      C1129   1.362       .  A
O1127      C1128   1.329       .  A
C1128      C1129   1.391       .  A
C1129      H1135   1.083       .  S
O1130      C1131   1.332       .  A
C1131      C1132   1.390       .  A
C1132      H1136   1.081       .  S
C1137      C1142   1.378       .  A
C1137      C1138   1.405       .  A
C1137      O1143   1.321       .  A
C1138      C1139   1.405       .  A
C1138      H1149   1.081       .  S
C1139      C1148   1.363       .  A
C1139      C1140   1.381       .  A
C1140      C1141   1.404       .  A
C1140      O1146   1.321       .  A
C1141      C1142   1.404       .  A
C1141      H1150   1.081       .  S
C1142      C1145   1.360       .  A
O1143      C1144   1.333       .  A
C1144      C1145   1.396       .  A
C1145      H1151   1.082       .  S
O1146      C1147   1.331       .  A
C1147      C1148   1.390       .  A
C1148      H1152   1.082       .  S
C1153      C1158   1.381       .  A
C1153      C1154   1.399       .  A
C1153      O1159   1.314       .  A
C1154      C1155   1.397       .  A
C1154      H1165   1.082       .  S
C1155      C1164   1.355       .  A
C1155      C1156   1.379       .  A
C1156      C1157   1.403       .  A
C1156      O1162   1.316       .  A
C1157      C1158   1.402       .  A
C1157      H1166   1.082       .  S
C1158      C1161   1.363       .  A
O1159      C1160   1.328       .  A
C1160      C1161   1.389       .  A
C1161      H1167   1.082       .  S
O1162      C1163   1.332       .  A
C1163      C1164   1.392       .  A
C1164      H1168   1.081       .  S
C1169      C1174   1.381       .  A
C1169      C1170   1.403       .  A
C1169      O1175   1.316       .  A
C1170      C1171   1.400       .  A
C1170      H1181   1.081       .  S
C1171      C1180   1.361       .  A
C1171      C1172   1.379       .  A
C1172      C1173   1.403       .  A
C1172      O1178   1.315       .  A
C1173      C1174   1.401       .  A
C1173      H1182   1.081       .  S
C1174      C1177   1.363       .  A
O1175      C1176   1.329       .  A
C1176      C1177   1.389       .  A
C1177      H1183   1.082       .  S
O1178      C1179   1.330       .  A
C1179      C1180   1.393       .  A
C1180      H1184   1.082       .  S
C1185      C1190   1.381       .  A
C1185      C1186   1.401       .  A
C1185      O1191   1.318       .  A
C1186      C1187   1.401       .  A
C1186      H1197   1.081       .  S
C1187      C1196   1.358       .  A
C1187      C1188   1.380       .  A
C1188      C1189   1.401       .  A
C1188      O1194   1.317       .  A
C1189      C1190   1.402       .  A
C1189      H1198   1.081       .  S
C1190      C1193   1.359       .  A
O1191      C1192   1.329       .  A
C1192      C1193   1.390       .  A
C1193      H1199   1.082       .  S
O1194      C1195   1.331       .  A
C1195      C1196   1.392       .  A
C1196      H1200   1.082       .  S
C1201      C1206   1.380       .  A
C1201      C1202   1.406       .  A
C1201      O1207   1.321       .  A
C1202      C1203   1.405       .  A
C1202      H1213   1.081       .  S
C1203      C1212   1.363       .  A
C1203      C1204   1.380       .  A
C1204      C1205   1.403       .  A
C1204      O1210   1.319       .  A
C1205      C1206   1.403       .  A
C1205      H1214   1.081       .  S
C1206      C1209   1.362       .  A
O1207      C1208   1.332       .  A
C1208      C1209   1.391       .  A
C1209      H1215   1.082       .  S
O1210      C1211   1.331       .  A
C1211      C1212   1.394       .  A
C1212      H1216   1.082       .  S
C1217      C1222   1.380       .  A
C1217      C1218   1.403       .  A
C1217      O1223   1.317       .  A
C1218      C1219   1.402       .  A
C1218      H1229   1.081       .  S
C1219      C1228   1.362       .  A
C1219      C1220   1.380       .  A
C1220      C1221   1.409       .  A
C1220      O1226   1.323       .  A
C1221      C1222   1.407       .  A
C1221      H1230   1.081       .  S
C1222      C1225   1.368       .  A
O1223      C1224   1.330       .  A
C1224      C1225   1.394       .  A
C1225      H1231   1.082       .  S
O1226      C1227   1.334       .  A
C1227      C1228   1.390       .  A
C1228      H1232   1.082       .  S
C1233      C1238   1.381       .  A
C1233      C1234   1.407       .  A
C1233      O1239   1.324       .  A
C1234      C1235   1.407       .  A
C1234      H1245   1.081       .  S
C1235      C1244   1.362       .  A
C1235      C1236   1.378       .  A
C1236      C1237   1.403       .  A
C1236      O1242   1.320       .  A
C1237      C1238   1.404       .  A
C1237      H1246   1.081       .  S
C1238      C1241   1.361       .  A
O1239      C1240   1.332       .  A
C1240      C1241   1.390       .  A
C1241      H1247   1.082       .  S
O1242      C1243   1.333       .  A
C1243      C1244   1.398       .  A
C1244      H1248   1.082       .  S
C1249      C1254   1.379       .  A
C1249      C1250   1.407       .  A
C1249      O1255   1.321       .  A
C1250      C1251   1.406       .  A
C1250      H1261   1.081       .  S
C1251      C1260   1.367       .  A
C1251      C1252   1.380       .  A
C1252      C1253   1.404       .  A
C1252      O1258   1.319       .  A
C1253      C1254   1.403       .  A
C1253      H1262   1.081       .  S
C1254      C1257   1.361       .  A
O1255      C1256   1.333       .  A
C1256      C1257   1.394       .  A
C1257      H1263   1.082       .  S
O1258      C1259   1.331       .  A
C1259      C1260   1.393       .  A
C1260      H1264   1.082       .  S
C1265      C1270   1.379       .  A
C1265      C1266   1.402       .  A
C1265      O1271   1.316       .  A
C1266      C1267   1.401       .  A
C1266      H1277   1.081       .  S
C1267      C1276   1.361       .  A
C1267      C1268   1.381       .  A
C1268      C1269   1.402       .  A
C1268      O1274   1.317       .  A
C1269      C1270   1.401       .  A
C1269      H1278   1.081       .  S
C1270      C1273   1.359       .  A
O1271      C1272   1.331       .  A
C1272      C1273   1.394       .  A
C1273      H1279   1.081       .  S
O1274      C1275   1.330       .  A
C1275      C1276   1.390       .  A
C1276      H1280   1.082       .  S
C1281      C1286   1.378       .  A
C1281      C1282   1.400       .  A
C1281      O1287   1.313       .  A
C1282      C1283   1.399       .  A
C1282      H1293   1.081       .  S
C1283      C1292   1.359       .  A
C1283      C1284   1.381       .  A
C1284      C1285   1.404       .  A
C1284      O1290   1.317       .  A
C1285      C1286   1.402       .  A
C1285      H1294   1.080       .  S
C1286      C1289   1.361       .  A
O1287      C1288   1.329       .  A
C1288      C1289   1.395       .  A
C1289      H1295   1.081       .  S
O1290      C1291   1.330       .  A
C1291      C1292   1.388       .  A
C1292      H1296   1.082       .  S
C1297      C1302   1.380       .  A
C1297      C1298   1.399       .  A
C1297      O1303   1.316       .  A
C1298      C1299   1.399       .  A
C1298      H1309   1.081       .  S
C1299      C1308   1.355       .  A
C1299      C1300   1.381       .  A
C1300      C1301   1.403       .  A
C1300      O1306   1.320       .  A
C1301      C1302   1.403       .  A
C1301      H1310   1.082       .  S
C1302      C1305   1.358       .  A
O1303      C1304   1.329       .  A
C1304      C1305   1.395       .  A
C1305      H1311   1.082       .  S
O1306      C1307   1.330       .  A
C1307      C1308   1.389       .  A
C1308      H1312   1.082       .  S
C1313      C1318   1.380       .  A
C1313      C1314   1.401       .  A
C1313      O1319   1.316       .  A
C1314      C1315   1.400       .  A
C1314      H1325   1.081       .  S
C1315      C1324   1.359       .  A
C1315      C1316   1.380       .  A
C1316      C1317   1.408       .  A
C1316      O1322   1.321       .  A
C1317      C1318   1.407       .  A
C1317      H1326   1.081       .  S
C1318      C1321   1.369       .  A
O1319      C1320   1.329       .  A
C1320      C1321   1.393       .  A
C1321      H1327   1.082       .  S
O1322      C1323   1.333       .  A
C1323      C1324   1.390       .  A
C1324      H1328   1.082       .  S
C1329      C1334   1.380       .  A
C1329      C1330   1.404       .  A
C1329      O1335   1.319       .  A
C1330      C1331   1.403       .  A
C1330      H1341   1.081       .  S
C1331      C1340   1.362       .  A
C1331      C1332   1.379       .  A
C1332      C1333   1.408       .  A
C1332      O1338   1.322       .  A
C1333      C1334   1.407       .  A
C1333      H1342   1.081       .  S
C1334      C1337   1.368       .  A
O1335      C1336   1.331       .  A
C1336      C1337   1.393       .  A
C1337      H1343   1.082       .  S
O1338      C1339   1.333       .  A
C1339      C1340   1.391       .  A
C1340      H1344   1.082       .  S
C1345      C1350   1.381       .  A
C1345      C1346   1.404       .  A
C1345      O1351   1.320       .  A
C1346      C1347   1.403       .  A
C1346      H1357   1.081       .  S
C1347      C1356   1.361       .  A
C1347      C1348   1.378       .  A
C1348      C1349   1.404       .  A
C1348      O1354   1.319       .  A
C1349      C1350   1.404       .  A
C1349      H1358   1.081       .  S
C1350      C1353   1.363       .  A
O1351      C1352   1.330       .  A
C1352      C1353   1.390       .  A
C1353      H1359   1.082       .  S
O1354      C1355   1.333       .  A
C1355      C1356   1.395       .  A
C1356      H1360   1.082       .  S
C1361      C1366   1.380       .  A
C1361      C1362   1.406       .  A
C1361      O1367   1.322       .  A
C1362      C1363   1.405       .  A
C1362      H1373   1.081       .  S
C1363      C1372   1.363       .  A
C1363      C1364   1.379       .  A
C1364      C1365   1.404       .  A
C1364      O1370   1.320       .  A
C1365      C1366   1.404       .  A
C1365      H1374   1.081       .  S
C1366      C1369   1.363       .  A
O1367      C1368   1.332       .  A
C1368      C1369   1.392       .  A
C1369      H1375   1.082       .  S
O1370      C1371   1.333       .  A
C1371      C1372   1.394       .  A
C1372      H1376   1.081       .  S
C1377      C1382   1.381       .  A
C1377      C1378   1.403       .  A
C1377      O1383   1.318       .  A
C1378      C1379   1.402       .  A
C1378      H1389   1.081       .  S
C1379      C1388   1.361       .  A
C1379      C1380   1.379       .  A
C1380      C1381   1.402       .  A
C1380      O1386   1.316       .  A
C1381      C1382   1.401       .  A
C1381      H1390   1.081       .  S
C1382      C1385   1.361       .  A
O1383      C1384   1.330       .  A
C1384      C1385   1.389       .  A
C1385      H1391   1.082       .  S
O1386      C1387   1.332       .  A
C1387      C1388   1.394       .  A
C1388      H1392   1.082       .  S
C1393      C1398   1.381       .  A
C1393      C1394   1.405       .  A
C1393      O1399   1.321       .  A
C1394      C1395   1.405       .  A
C1394      H1405   1.082       .  S
C1395      C1404   1.362       .  A
C1395      C1396   1.378       .  A
C1396      C1397   1.403       .  A
C1396      O1402   1.318       .  A
C1397      C1398   1.403       .  A
C1397      H1406   1.081       .  S
C1398      C1401   1.361       .  A
O1399      C1400   1.331       .  A
C1400      C1401   1.389       .  A
C1401      H1407   1.082       .  S
O1402      C1403   1.332       .  A
C1403      C1404   1.397       .  A
C1404      H1408   1.082       .  S
C1409      C1414   1.380       .  A
C1409      C1410   1.403       .  A
C1409      O1415   1.318       .  A
C1410      C1411   1.403       .  A
C1410      H1421   1.081       .  S
C1411      C1420   1.361       .  A
C1411      C1412   1.380       .  A
C1412      C1413   1.406       .  A
C1412      O1418   1.322       .  A
C1413      C1414   1.405       .  A
C1413      H1422   1.081       .  S
C1414      C1417   1.363       .  A
O1415      C1416   1.332       .  A
C1416      C1417   1.394       .  A
C1417      H1423   1.081       .  S
O1418      C1419   1.332       .  A
C1419      C1420   1.391       .  A
C1420      H1424   1.082       .  S
C1425      C1430   1.380       .  A
C1425      C1426   1.401       .  A
C1425      O1431   1.317       .  A
C1426      C1427   1.401       .  A
C1426      H1437   1.083       .  S
C1427      C1436   1.359       .  A
C1427      C1428   1.380       .  A
C1428      C1429   1.407       .  A
C1428      O1434   1.323       .  A
C1429      C1430   1.407       .  A
C1429      H1438   1.083       .  S
C1430      C1433   1.366       .  A
O1431      C1432   1.331       .  A
C1432      C1433   1.395       .  A
C1433      H1439   1.083       .  S
O1434      C1435   1.333       .  A
C1435      C1436   1.390       .  A
C1436      H1440   1.083       .  S
C1441      C1446   1.380       .  A
C1441      C1442   1.408       .  A
C1441      O1447   1.322       .  A
C1442      C1443   1.408       .  A
C1442      H1453   1.081       .  S
C1443      C1452   1.368       .  A
C1443      C1444   1.380       .  A
C1444      C1445   1.403       .  A
C1444      O1450   1.319       .  A
C1445      C1446   1.402       .  A
C1445      H1454   1.081       .  S
C1446      C1449   1.361       .  A
O1447      C1448   1.333       .  A
C1448      C1449   1.390       .  A
C1449      H1455   1.082       .  S
O1450      C1451   1.330       .  A
C1451      C1452   1.393       .  A
C1452      H1456   1.082       .  S
C1457      C1462   1.380       .  A
C1457      C1458   1.402       .  A
C1457      O1463   1.315       .  A
C1458      C1459   1.401       .  A
C1458      H1469   1.081       .  S
C1459      C1468   1.362       .  A
C1459      C1460   1.381       .  A
C1460      C1461   1.401       .  A
C1460      O1466   1.314       .  A
C1461      C1462   1.399       .  A
C1461      H1470   1.081       .  S
C1462      C1465   1.358       .  A
O1463      C1464   1.331       .  A
C1464      C1465   1.392       .  A
C1465      H1471   1.082       .  S
O1466      C1467   1.329       .  A
C1467      C1468   1.389       .  A
C1468      H1472   1.082       .  S
C1473      C1478   1.379       .  A
C1473      C1474   1.400       .  A
C1473      O1479   1.313       .  A
C1474      C1475   1.399       .  A
C1474      H1485   1.081       .  S
C1475      C1484   1.359       .  A
C1475      C1476   1.381       .  A
C1476      C1477   1.405       .  A
C1476      O1482   1.318       .  A
C1477      C1478   1.403       .  A
C1477      H1486   1.081       .  S
C1478      C1481   1.363       .  A
O1479      C1480   1.329       .  A
C1480      C1481   1.395       .  A
C1481      H1487   1.082       .  S
O1482      C1483   1.331       .  A
C1483      C1484   1.388       .  A
C1484      H1488   1.082       .  S
C1489      C1494   1.381       .  A
C1489      C1490   1.403       .  A
C1489      O1495   1.317       .  A
C1490      C1491   1.401       .  A
C1490      H1501   1.081       .  S
C1491      C1500   1.360       .  A
C1491      C1492   1.378       .  A
C1492      C1493   1.403       .  A
C1492      O1498   1.317       .  A
C1493      C1494   1.402       .  A
C1493      H1502   1.081       .  S
C1494      C1497   1.363       .  A
O1495      C1496   1.330       .  A
C1496      C1497   1.390       .  A
C1497      H1503   1.082       .  S
O1498      C1499   1.332       .  A
C1499      C1500   1.395       .  A
C1500      H1504   1.081       .  S
C1505      C1510   1.379       .  A
C1505      C1506   1.403       .  A
C1505      O1511   1.317       .  A
C1506      C1507   1.403       .  A
C1506      H1517   1.081       .  S
C1507      C1516   1.361       .  A
C1507      C1508   1.381       .  A
C1508      C1509   1.400       .  A
C1508      O1514   1.316       .  A
C1509      C1510   1.399       .  A
C1509      H1518   1.081       .  S
C1510      C1513   1.356       .  A
O1511      C1512   1.332       .  A
C1512      C1513   1.392       .  A
C1513      H1519   1.082       .  S
O1514      C1515   1.328       .  A
C1515      C1516   1.391       .  A
C1516      H1520   1.082       .  S
C1521      C1526   1.379       .  A
C1521      C1522   1.406       .  A
C1521      O1527   1.320       .  A
C1522      C1523   1.405       .  A
C1522      H1533   1.081       .  S
C1523      C1532   1.367       .  A
C1523      C1524   1.381       .  A
C1524      C1525   1.404       .  A
C1524      O1530   1.319       .  A
C1525      C1526   1.403       .  A
C1525      H1534   1.081       .  S
C1526      C1529   1.362       .  A
O1527      C1528   1.333       .  A
C1528      C1529   1.394       .  A
C1529      H1535   1.082       .  S
O1530      C1531   1.331       .  A
C1531      C1532   1.391       .  A
C1532      H1536   1.082       .  S
C1537      C1542   1.380       .  A
C1537      C1538   1.407       .  A
C1537      O1543   1.322       .  A
C1538      C1539   1.406       .  A
C1538      H1549   1.081       .  S
C1539      C1548   1.365       .  A
C1539      C1540   1.380       .  A
C1540      C1541   1.401       .  A
C1540      O1546   1.317       .  A
C1541      C1542   1.400       .  A
C1541      H1550   1.081       .  S
C1542      C1545   1.358       .  A
O1543      C1544   1.332       .  A
C1544      C1545   1.390       .  A
C1545      H1551   1.082       .  S
O1546      C1547   1.331       .  A
C1547      C1548   1.396       .  A
C1548      H1552   1.082       .  S
C1553      C1558   1.378       .  A
C1553      C1554   1.407       .  A
C1553      O1559   1.320       .  A
C1554      C1555   1.406       .  A
C1554      H1565   1.081       .  S
C1555      C1564   1.367       .  A
C1555      C1556   1.381       .  A
C1556      C1557   1.403       .  A
C1556      O1562   1.317       .  A
C1557      C1558   1.401       .  A
C1557      H1566   1.081       .  S
C1558      C1561   1.360       .  A
O1559      C1560   1.335       .  A
C1560      C1561   1.395       .  A
C1561      H1567   1.082       .  S
O1562      C1563   1.329       .  A
C1563      C1564   1.392       .  A
C1564      H1568   1.082       .  S
C1569      C1574   1.380       .  A
C1569      C1570   1.406       .  A
C1569      O1575   1.322       .  A
C1570      C1571   1.406       .  A
C1570      H1581   1.080       .  S
C1571      C1580   1.363       .  A
C1571      C1572   1.380       .  A
C1572      C1573   1.405       .  A
C1572      O1578   1.321       .  A
C1573      C1574   1.405       .  A
C1573      H1582   1.080       .  S
C1574      C1577   1.364       .  A
O1575      C1576   1.333       .  A
C1576      C1577   1.392       .  A
C1577      H1583   1.082       .  S
O1578      C1579   1.332       .  A
C1579      C1580   1.395       .  A
C1580      H1584   1.082       .  S
