geometry optimzed in LAMMPS
_audit_creation_date              2020-11-30 
_audit_creation_method            'lammps2cif' 
_symmetry_space_group_name_H-M    'P1' 
_symmetry_Int_Tables_number       1 
_symmetry_cell_setting            triclinic 
loop_ 
_symmetry_equiv_pos_as_xyz 
  x,y,z 
_cell_length_a                    65.8854594324351 
_cell_length_b                    65.87134157715472 
_cell_length_c                    66.05702870887642 
_cell_angle_alpha                 90.11045093963617 
_cell_angle_beta                  89.89201304050681 
_cell_angle_gamma                 90.03995736668894 
loop_ 
_atom_site_label 
_atom_site_type_symbol 
_atom_site_fract_x 
_atom_site_fract_y 
_atom_site_fract_z 
_atom_site_charge 
N1          N  0.21150228  0.48381160  0.01665734    -0.26920
N2          N  0.21998854  0.47693556  0.03342035    -0.34770
C3          C  0.23989823  0.47392811  0.03020396     0.01420
C4          C  0.24409562  0.47873643  0.01034203     0.07450
C5          C  0.22578978  0.48484294  0.00209834    -0.05650
H6          H  0.25040199  0.46814243  0.04136621     0.08120
H7          H  0.22313233  0.48998847  0.98678278     0.09320
Cu8        Cu  0.20423783  0.47096789  0.05967671     0.44170
Cu9        Cu  0.18118756  0.49268513  0.01507855     0.41990
Cu10       Cu  0.15418258  0.49148691  0.06349771     0.43880
N11         N  0.18632634  0.46773888  0.08501024    -0.34300
N12         N  0.16837094  0.47642963  0.08700670    -0.28560
C13         C  0.16166846  0.47357111  0.10603068    -0.04660
C14         C  0.17596209  0.46215248  0.11621069     0.07560
C15         C  0.19136193  0.45868005  0.10247525     0.01360
H16         H  0.14764052  0.47961511  0.11206575     0.09010
H17         H  0.20571782  0.45125974  0.10532437     0.08090
N18         N  0.14195097  0.50252288  0.03685567    -0.35750
N19         N  0.15145916  0.50272053  0.01919425    -0.27930
C20         C  0.13890539  0.51053014  0.00515335    -0.03170
C21         C  0.12058794  0.51511518  0.01439250     0.05440
C22         C  0.12319093  0.51014061  0.03452173     0.03530
H23         H  0.14279552  0.51268117  0.98938297     0.08640
H24         H  0.11240458  0.51220456  0.04670927     0.07470
N25         N  0.29668910  0.47704447  0.99347142    -0.26920
N26         N  0.28710975  0.47145752  0.97678589    -0.34770
C27         C  0.26700505  0.47148673  0.98018264     0.01420
C28         C  0.26375424  0.47696660  0.00006323     0.07450
C29         C  0.28284571  0.48026824  0.00815053    -0.05650
H30         H  0.25563060  0.46757900  0.96903704     0.08120
H31         H  0.28636440  0.48528135  0.02335670     0.09320
Cu32       Cu  0.30137661  0.46414506  0.94998558     0.44170
Cu33       Cu  0.32787669  0.48228281  0.99456141     0.41990
Cu34       Cu  0.35204779  0.48254308  0.94485906     0.43880
N35         N  0.31783901  0.46133493  0.92361777    -0.34300
N36         N  0.33609382  0.46930954  0.92131362    -0.28560
C37         C  0.34154504  0.46783911  0.90175326    -0.04660
C38         C  0.32609196  0.45813278  0.89143267     0.07560
C39         C  0.31131991  0.45416008  0.90572174     0.01360
H40         H  0.35536293  0.47403176  0.89540340     0.09010
H41         H  0.29631045  0.44806698  0.90301945     0.08090
N42         N  0.36613807  0.49205444  0.97121283    -0.35750
N43         N  0.35783119  0.49114027  0.98941186    -0.27930
C44         C  0.37136243  0.49795831  0.00307164    -0.03170
C45         C  0.38910020  0.50344118  0.99302458     0.05440
C46         C  0.38498759  0.49967703  0.97277501     0.03530
H47         H  0.36837359  0.49902545  0.01914437     0.08640
H48         H  0.39469071  0.50267816  0.95991895     0.07470
N49         N  0.21458015  0.56077088  0.26712401    -0.26920
N50         N  0.20826598  0.55190080  0.28395113    -0.34770
C51         C  0.20328334  0.53253312  0.28004068     0.01420
C52         C  0.20614082  0.52905300  0.25969240     0.07450
C53         C  0.21321729  0.54724424  0.25184684    -0.05650
H54         H  0.19721532  0.52202989  0.29107963     0.08120
H55         H  0.21715028  0.55037451  0.23625093     0.09320
Cu56       Cu  0.20449540  0.56637346  0.31125445     0.44170
Cu57       Cu  0.22512012  0.59075713  0.26620859     0.41990
Cu58       Cu  0.22269562  0.61680525  0.31511696     0.43880
N59         N  0.20167102  0.58331966  0.33721757    -0.34300
N60         N  0.20949144  0.60167974  0.33906866    -0.28560
C61         C  0.20698426  0.60808229  0.35822741    -0.04660
C62         C  0.19666408  0.59313900  0.36867328     0.07560
C63         C  0.19347836  0.57766526  0.35495461     0.01360
H64         H  0.21238710  0.62243453  0.36411860     0.09010
H65         H  0.18669409  0.56299838  0.35788932     0.08090
N66         N  0.23365481  0.62981530  0.28888915    -0.35750
N67         N  0.23504938  0.62056322  0.27116489    -0.27930
C68         C  0.24327349  0.63360005  0.25774009    -0.03170
C69         C  0.24724866  0.65190756  0.26752251     0.05440
C70         C  0.24058333  0.64889116  0.28717403     0.03530
H71         H  0.24618517  0.62997085  0.24202512     0.08640
H72         H  0.24042885  0.65981221  0.29941174     0.07470
N73         N  0.18605393  0.44426045  0.16694067    -0.26920
N74         N  0.17841409  0.46240405  0.17075547    -0.34770
C75         C  0.17221375  0.47087410  0.15336179     0.01420
C76         C  0.17650252  0.45752394  0.13782933     0.07450
C77         C  0.18535478  0.44084420  0.14688998    -0.05650
H78         H  0.16677404  0.48629983  0.15193613     0.08120
H79         H  0.19157948  0.42761191  0.13941069     0.09320
Cu80       Cu  0.18132350  0.47650619  0.19838418     0.44170
Cu81       Cu  0.19803321  0.42581663  0.18925503     0.41990
Cu82       Cu  0.19883693  0.44623638  0.24054740     0.43880
N83         N  0.19133807  0.48872446  0.22525880    -0.34300
N84         N  0.19690013  0.47783133  0.24109936    -0.28560
C85         C  0.20283067  0.49055229  0.25592900    -0.04660
C86         C  0.20134100  0.51024577  0.24878753     0.07560
C87         C  0.19405697  0.50853332  0.22932276     0.01360
H88         H  0.20850296  0.48580415  0.27053672     0.09010
H89         H  0.19087246  0.52075726  0.21888289     0.08090
N90         N  0.20516094  0.41605363  0.23333776    -0.35750
N91         N  0.20588287  0.40911273  0.21457228    -0.27930
C92         C  0.21229932  0.38976761  0.21475557    -0.03170
C93         C  0.21542032  0.38386182  0.23465907     0.05440
C94         C  0.21083712  0.40110596  0.24598334     0.03530
H95         H  0.21514020  0.38099738  0.20120460     0.08640
H96         H  0.21201171  0.40289921  0.26221745     0.07470
N97         N  0.29925140  0.58381048  0.52049993    -0.26920
N98         N  0.28963653  0.58965609  0.53709668    -0.34770
C99         C  0.26959770  0.59047189  0.53346011     0.01420
C100        C  0.26648618  0.58526889  0.51349590     0.07450
C101        C  0.28555439  0.58124282  0.50563713    -0.05650
H102        H  0.25823856  0.59502267  0.54440454     0.08120
H103        H  0.28916212  0.57646621  0.49036782     0.09320
Cu104      Cu  0.30401512  0.59679471  0.56376984     0.44170
Cu105      Cu  0.33029980  0.57807670  0.51954550     0.41990
Cu106      Cu  0.35548491  0.58000398  0.56866587     0.43880
N107        N  0.32048840  0.59988827  0.58997824    -0.34300
N108        N  0.33895746  0.59246211  0.59229196    -0.28560
C109        C  0.34423702  0.59403539  0.61188224    -0.04660
C110        C  0.32844842  0.60328999  0.62214395     0.07560
C111        C  0.31367969  0.60686146  0.60784101     0.01360
H112        H  0.35823624  0.58835312  0.61825362     0.09010
H113        H  0.29853189  0.61262841  0.61048887     0.08090
N114        N  0.36923573  0.56994102  0.54228152    -0.35750
N115        N  0.36034485  0.56961893  0.52432857    -0.27930
C116        C  0.37338799  0.56181950  0.51066265    -0.03170
C117        C  0.39118862  0.55696657  0.52058276     0.05440
C118        C  0.38808267  0.56232503  0.54053953     0.03530
H119        H  0.36993064  0.55923192  0.49485999     0.08640
H120        H  0.39857882  0.56042534  0.55297268     0.07470
N121        N  0.21464623  0.58193464  0.49479013    -0.26920
N122        N  0.22443250  0.58819042  0.47846369    -0.34770
C123        C  0.24426945  0.59002376  0.48261134     0.01420
C124        C  0.24712949  0.58509345  0.50263547     0.07450
C125        C  0.22807283  0.58014745  0.51004221    -0.05650
H126        H  0.25571017  0.59478702  0.47185373     0.08120
H127        H  0.22435983  0.57505171  0.52516696     0.09320
Cu128      Cu  0.21100921  0.59365021  0.45102536     0.44170
Cu129      Cu  0.18391122  0.57438011  0.49441770     0.41990
Cu130      Cu  0.16196663  0.57274362  0.44330273     0.43880
N131        N  0.19718627  0.59312404  0.42326474    -0.34300
N132        N  0.17966554  0.58396203  0.42000067    -0.28560
C133        C  0.17632338  0.58311590  0.39994925    -0.04660
C134        C  0.19239146  0.59258574  0.39034831     0.07560
C135        C  0.20529675  0.59882144  0.40552326     0.01360
H136        H  0.16345641  0.57575318  0.39290531     0.09010
H137        H  0.22016097  0.60558549  0.40374876     0.08090
N138        N  0.14652770  0.56486388  0.46942160    -0.35750
N139        N  0.15421314  0.56555828  0.48792070    -0.27930
C140        C  0.14005263  0.55899705  0.50110709    -0.03170
C141        C  0.12268663  0.55425674  0.49036488     0.05440
C142        C  0.12736800  0.55793067  0.47035819     0.03530
H143        H  0.14238122  0.55734126  0.51723001     0.08640
H144        H  0.11770512  0.55535541  0.45737260     0.07470
N145        N  0.30891602  0.57545804  0.74616138    -0.26920
N146        N  0.31527384  0.56635975  0.72944965    -0.34770
C147        C  0.31689978  0.54632837  0.73275413     0.01420
C148        C  0.31172920  0.54262122  0.75261023     0.07450
C149        C  0.30684633  0.56137491  0.76078777    -0.05650
H150        H  0.32168188  0.53532232  0.72154378     0.08120
H151        H  0.30153317  0.56444445  0.77599593     0.09320
Cu152      Cu  0.32145199  0.58101941  0.70268276     0.44170
Cu153      Cu  0.30131520  0.60620258  0.74728233     0.41990
Cu154      Cu  0.30036794  0.63028468  0.69739258     0.43880
N155        N  0.32319424  0.59724561  0.67619644    -0.34300
N156        N  0.31415776  0.61495644  0.67378477    -0.28560
C157        C  0.31536997  0.62034274  0.65421070    -0.04660
C158        C  0.32605776  0.60543603  0.64402868     0.07560
C159        C  0.33083899  0.59103997  0.65837841     0.01360
H160        H  0.30851677  0.63378997  0.64779567     0.09010
H161        H  0.33796324  0.57646732  0.65579305     0.08090
N162        N  0.29030644  0.64398594  0.72372674    -0.35750
N163        N  0.29118550  0.63574699  0.74197126    -0.27930
C164        C  0.28351493  0.64903239  0.75551033    -0.03170
C165        C  0.27747727  0.66624809  0.74517100     0.05440
C166        C  0.28196991  0.66253725  0.72512225     0.03530
H167        H  0.28186125  0.64612800  0.77154584     0.08640
H168        H  0.27918567  0.67250242  0.71242587     0.07470
N169        N  0.31252048  0.44750706  0.83930050    -0.26920
N170        N  0.32132208  0.46544590  0.83750222    -0.34770
C171        C  0.32862391  0.47125128  0.85555911     0.01420
C172        C  0.32384565  0.45642665  0.86947620     0.07450
C173        C  0.31352522  0.44162146  0.85876568    -0.05650
H174        H  0.33550764  0.48585417  0.85860904     0.08120
H175        H  0.30677906  0.42790395  0.86474988     0.09320
Cu176      Cu  0.31982494  0.48288162  0.81174360     0.44170
Cu177      Cu  0.29909128  0.43256653  0.81513111     0.41990
Cu178      Cu  0.30017189  0.45940747  0.76668662     0.43880
N179        N  0.31426557  0.49861978  0.78544823    -0.34300
N180        N  0.30811764  0.48991684  0.76848711    -0.28560
C181        C  0.30645989  0.50423641  0.75408953    -0.04660
C182        C  0.31138227  0.52279356  0.76263434     0.07560
C183        C  0.31617641  0.51871286  0.78251714     0.01360
H184        H  0.30145843  0.50144499  0.73873764     0.09010
H185        H  0.32098018  0.52947108  0.79394239     0.08090
N186        N  0.28885041  0.43018318  0.77056197    -0.35750
N187        N  0.28809477  0.42068651  0.78819649    -0.27930
C188        C  0.27886954  0.40263664  0.78569504    -0.03170
C189        C  0.27350862  0.40076502  0.76559842     0.05440
C190        C  0.28014044  0.41837309  0.75637284     0.03530
H191        H  0.27605968  0.39180087  0.79766881     0.08640
H192        H  0.27835210  0.42249627  0.74063013     0.07470
N193        N  0.55755194  0.54567146  0.30114068    -0.26920
N194        N  0.56340111  0.56236936  0.29170559    -0.34770
C195        C  0.56411674  0.55890113  0.27166961     0.01420
C196        C  0.55884395  0.53893944  0.26833642     0.07450
C197        C  0.55488692  0.53089884  0.28729591    -0.05650
H198        H  0.56867113  0.56995760  0.26045240     0.08120
H199        H  0.55011208  0.51556589  0.29073082     0.09320
Cu200      Cu  0.57073241  0.58897143  0.30625884     0.44170
Cu201      Cu  0.55200651  0.54451994  0.33220156     0.41990
Cu202      Cu  0.55472450  0.59358490  0.35788868     0.43880
N203        N  0.57402838  0.61517136  0.32284678    -0.34300
N204        N  0.56686938  0.61738571  0.34141246    -0.28560
C205        C  0.56841800  0.63701521  0.34680457    -0.04660
C206        C  0.57740896  0.64739707  0.33099243     0.07560
C207        C  0.58081730  0.63313621  0.31608111     0.01360
H208        H  0.56288298  0.64333357  0.36089730     0.09010
H209        H  0.58631925  0.63588612  0.30088385     0.08090
N210        N  0.54452321  0.56714526  0.37143631    -0.35750
N211        N  0.54382306  0.54923063  0.36235417    -0.27930
C212        C  0.53586576  0.53558090  0.37528968    -0.03170
C213        C  0.53112721  0.54549512  0.39317995     0.05440
C214        C  0.53702927  0.56538243  0.39029414     0.03530
H215        H  0.53321154  0.51976257  0.37174144     0.08640
H216        H  0.53549961  0.57779459  0.40093886     0.07470
N217        N  0.55557671  0.52070868  0.21633606    -0.26920
N218        N  0.56184804  0.50426471  0.22588107    -0.34770
C219        C  0.56362785  0.50820407  0.24572370     0.01420
C220        C  0.55864293  0.52824055  0.24886929     0.07450
C221        C  0.55372393  0.53586351  0.22995181    -0.05650
H222        H  0.56840482  0.49729432  0.25697640     0.08120
H223        H  0.54860437  0.55105949  0.22646732     0.09320
Cu224      Cu  0.56732600  0.47700333  0.21202345     0.44170
Cu225      Cu  0.54803244  0.52035580  0.18564490     0.41990
Cu226      Cu  0.54589753  0.46894775  0.16331110     0.43880
N227        N  0.56678703  0.44917782  0.19828027    -0.34300
N228        N  0.55749882  0.44565405  0.18093151    -0.28560
C229        C  0.55664652  0.42546453  0.17790169    -0.04660
C230        C  0.56619238  0.41609557  0.19402803     0.07560
C231        C  0.57251073  0.43154594  0.20657931     0.01360
H232        H  0.54913339  0.41817075  0.16527674     0.09010
H233        H  0.57930111  0.43005173  0.22140852     0.08090
N234        N  0.53732747  0.49532786  0.14844905    -0.35750
N235        N  0.53840409  0.51386064  0.15621179    -0.27930
C236        C  0.53130677  0.52717688  0.14248332    -0.03170
C237        C  0.52537328  0.51646185  0.12545317     0.05440
C238        C  0.52950375  0.49639003  0.12968935     0.03530
H239        H  0.52999912  0.54336266  0.14493843     0.08640
H240        H  0.52665405  0.48343863  0.12000243     0.07470
N241        N  0.54816853  0.77111355  0.31015630    -0.26920
N242        N  0.53919067  0.75433489  0.31654141    -0.34770
C243        C  0.51912933  0.75751917  0.31814372     0.01420
C244        C  0.51527291  0.77737260  0.31292866     0.07450
C245        C  0.53397356  0.78566777  0.30804327    -0.05650
H246        H  0.50821421  0.74625493  0.32301401     0.08120
H247        H  0.53694592  0.80092599  0.30277354     0.09320
Cu248      Cu  0.55411095  0.72772629  0.32302592     0.44170
Cu249      Cu  0.57897817  0.77246538  0.30281161     0.41990
Cu250      Cu  0.60447051  0.72313779  0.30416115     0.43880
N251        N  0.57074627  0.70146597  0.32548488    -0.34300
N252        N  0.58890526  0.69929729  0.31727697    -0.28560
C253        C  0.59454362  0.67975100  0.31870768    -0.04660
C254        C  0.57933500  0.66935575  0.32871953     0.07560
C255        C  0.56449174  0.68352963  0.33283396     0.01360
H256        H  0.60838207  0.67349669  0.31245388     0.09010
H257        H  0.54964673  0.68072817  0.33927823     0.08090
N258        N  0.61776146  0.74953634  0.29365814    -0.35750
N259        N  0.60886185  0.76754846  0.29340633    -0.27930
C260        C  0.62177214  0.78109710  0.28514974    -0.03170
C261        C  0.63944802  0.77099749  0.27989894     0.05440
C262        C  0.63642923  0.75111258  0.28559508     0.03530
H263        H  0.61831393  0.79693184  0.28255171     0.08640
H264        H  0.64684721  0.73858067  0.28358289     0.07470
N265        N  0.41964134  0.86393887  0.31455225    -0.26920
N266        N  0.43766866  0.86224057  0.32312855    -0.34770
C267        C  0.44345917  0.88039854  0.33037121     0.01420
C268        C  0.42854013  0.89430917  0.32581330     0.07450
C269        C  0.41370768  0.88346766  0.31563924    -0.05650
H270        H  0.45811447  0.88352538  0.33706040     0.08120
H271        H  0.39991952  0.88941836  0.30905809     0.09320
Cu272      Cu  0.45523946  0.83646627  0.32142395     0.44170
Cu273      Cu  0.40461325  0.83947543  0.30133994     0.41990
Cu274      Cu  0.43187080  0.79105836  0.30226607     0.43880
N275        N  0.47110506  0.81013455  0.31577434    -0.34300
N276        N  0.46245022  0.79304145  0.30980174    -0.28560
C277        C  0.47683744  0.77865339  0.30803930    -0.04660
C278        C  0.49538606  0.78734023  0.31271273     0.07560
C279        C  0.49122733  0.80729726  0.31747019     0.01360
H280        H  0.47409041  0.76320714  0.30315407     0.09010
H281        H  0.50195343  0.81883287  0.32211759     0.08090
N282        N  0.40254381  0.79462443  0.29120079    -0.35750
N283        N  0.39285194  0.81221266  0.29045922    -0.27930
C284        C  0.37486784  0.80944970  0.28120458    -0.03170
C285        C  0.37326760  0.78924900  0.27576325     0.05440
C286        C  0.39095054  0.78023617  0.28247427     0.03530
H287        H  0.36394090  0.82134152  0.27830682     0.08640
H288        H  0.39532577  0.76451587  0.28061801     0.07470
N289        N  0.41655912  0.19313871  0.18412973    -0.26920
N290        N  0.43547025  0.19631668  0.17821655    -0.34770
C291        C  0.44414753  0.17852554  0.17342638     0.01420
C292        C  0.43019679  0.16334697  0.17691458     0.07450
C293        C  0.41288523  0.17303150  0.18382333    -0.05650
H294        H  0.45998662  0.17664067  0.16950850     0.08120
H295        H  0.39897064  0.16597140  0.18894541     0.09320
Cu296      Cu  0.45043138  0.22345199  0.18182063     0.44170
Cu297      Cu  0.39752651  0.21639129  0.19376952     0.41990
Cu298      Cu  0.42222894  0.26495673  0.20324625     0.43880
N299        N  0.46377770  0.24970924  0.19216263    -0.34300
N300        N  0.45338957  0.26537523  0.19917576    -0.28560
C301        C  0.46645532  0.28004309  0.20466418    -0.04660
C302        C  0.48592921  0.27296228  0.20139163     0.07560
C303        C  0.48373348  0.25369665  0.19351584     0.01360
H304        H  0.46212284  0.29448914  0.21118214     0.09010
H305        H  0.49568798  0.24340348  0.18895561     0.08090
N306        N  0.39173448  0.25944454  0.20855815    -0.35750
N307        N  0.38259468  0.24210925  0.20434691    -0.27930
C308        C  0.36297882  0.24353383  0.20973102    -0.03170
C309        C  0.35947177  0.26264808  0.21806733     0.05440
C310        C  0.37830760  0.27214709  0.21720493     0.03530
H311        H  0.35227009  0.23121110  0.20809615     0.08640
H312        H  0.38244055  0.28683898  0.22317732     0.07470
N313        N  0.53668635  0.29160721  0.21255542    -0.26920
N314        N  0.52726218  0.30852740  0.20735519    -0.34770
C315        C  0.50781883  0.30443674  0.20302489     0.01420
C316        C  0.50487474  0.28388951  0.20516824     0.07450
C317        C  0.52343220  0.27608604  0.21114181    -0.05650
H318        H  0.49680717  0.31556559  0.19811840     0.08120
H319        H  0.52693001  0.26041614  0.21454349     0.09320
Cu320      Cu  0.54086811  0.33636814  0.20482027     0.44170
Cu321      Cu  0.56676205  0.29109608  0.22242131     0.41990
Cu322      Cu  0.58844420  0.34195642  0.22873224     0.43880
N323        N  0.55709954  0.36285659  0.20361643    -0.34300
N324        N  0.57432087  0.36538441  0.21347464    -0.28560
C325        C  0.58058215  0.38464055  0.21107479    -0.04660
C326        C  0.56672050  0.39446223  0.19883429     0.07560
C327        C  0.55203914  0.38024037  0.19433687     0.01360
H328        H  0.59409921  0.39103165  0.21783946     0.09010
H329        H  0.53823185  0.38258403  0.18580874     0.08090
N330        N  0.60275530  0.31540514  0.23731138    -0.35750
N331        N  0.59560161  0.29692056  0.23415940    -0.27930
C332        C  0.60984215  0.28338578  0.23973047    -0.03170
C333        C  0.62684999  0.29383930  0.24663270     0.05440
C334        C  0.62148821  0.31413431  0.24514804     0.03530
H335        H  0.60804784  0.26710977  0.23846769     0.08640
H336        H  0.63039041  0.32723072  0.24937571     0.07470
N337        N  0.45517470  0.04161097  0.21255975    -0.26920
N338        N  0.44886083  0.05851696  0.22138002    -0.34770
C339        C  0.44626229  0.05516835  0.24127969     0.01420
C340        C  0.45075123  0.03509798  0.24510625     0.07450
C341        C  0.45625131  0.02687195  0.22660459    -0.05650
H342        H  0.44105164  0.06641077  0.25205692     0.08120
H343        H  0.46110268  0.01145933  0.22365257     0.09320
Cu344      Cu  0.44321709  0.08523693  0.20612912     0.44170
Cu345      Cu  0.46351594  0.03990706  0.18217000     0.41990
Cu346      Cu  0.46465232  0.08861939  0.15641982     0.43880
N347        N  0.44026350  0.11056188  0.18803780    -0.34300
N348        N  0.44929220  0.11225773  0.17024570    -0.28560
C349        C  0.44640143  0.13113651  0.16315646    -0.04660
C350        C  0.43459711  0.14159398  0.17696753     0.07560
C351        C  0.43096176  0.12815553  0.19257111     0.01360
H352        H  0.45269946  0.13691004  0.14916570     0.09010
H353        H  0.42325296  0.13130991  0.20670679     0.08090
N354        N  0.47472962  0.06177265  0.14360594    -0.35750
N355        N  0.47376671  0.04388235  0.15258575    -0.27930
C356        C  0.48069465  0.02962710  0.13968006    -0.03170
C357        C  0.48609907  0.03897506  0.12163210     0.05440
C358        C  0.48233687  0.05941104  0.12487208     0.03530
H359        H  0.48165715  0.01362118  0.14317626     0.08640
H360        H  0.48505550  0.07177786  0.11446326     0.07470
N361        N  0.45070424  0.01795950  0.29743163    -0.26920
N362        N  0.44475465  0.00126844  0.28801042    -0.34770
C363        C  0.44411765  0.00473587  0.26798183     0.01420
C364        C  0.44953429  0.02468672  0.26467589     0.07450
C365        C  0.45350455  0.03271370  0.28363379    -0.05650
H366        H  0.43976983  0.99362120  0.25671452     0.08120
H367        H  0.45864377  0.04793468  0.28707822     0.09320
Cu368      Cu  0.43761126  0.97459542  0.30269862     0.44170
Cu369      Cu  0.45668005  0.01895654  0.32830976     0.41990
Cu370      Cu  0.45244736  0.97062747  0.35502828     0.43880
N371        N  0.43392076  0.94855932  0.31958863    -0.34300
N372        N  0.44052283  0.94660523  0.33836969    -0.28560
C373        C  0.43876822  0.92702704  0.34388936    -0.04660
C374        C  0.43020737  0.91638447  0.32796770     0.07560
C375        C  0.42729577  0.93048084  0.31284254     0.01360
H376        H  0.44394105  0.92088231  0.35815760     0.09010
H377        H  0.42226896  0.92752169  0.29752892     0.08090
N378        N  0.46341605  0.99722415  0.36807368    -0.35750
N379        N  0.46504494  0.01469175  0.35834115    -0.27930
C380        C  0.47354506  0.02851239  0.37073450    -0.03170
C381        C  0.47747259  0.01932230  0.38913031     0.05440
C382        C  0.47066202  0.99956290  0.38697355     0.03530
H383        H  0.47654225  0.04410132  0.36661885     0.08640
H384        H  0.47144161  0.98760196  0.39815250     0.07470
N385        N  0.74486608  0.33359427  0.55045152    -0.26920
N386        N  0.72827726  0.34047173  0.54156093    -0.34770
C387        C  0.73161702  0.34230147  0.52159260     0.01420
C388        C  0.75139141  0.33673719  0.51771896     0.07450
C389        C  0.75947464  0.33140997  0.53630956    -0.05650
H390        H  0.72048801  0.34748085  0.51073859     0.08120
H391        H  0.77458090  0.32570266  0.53921389     0.09320
Cu392      Cu  0.70167051  0.34705108  0.55650916     0.44170
Cu393      Cu  0.74573738  0.32556773  0.58100719     0.41990
Cu394      Cu  0.69613946  0.32680844  0.60619901     0.43880
N395        N  0.67517167  0.34921484  0.57282994    -0.34300
N396        N  0.67260765  0.34050111  0.59064190    -0.28560
C397        C  0.65294040  0.34187438  0.59593328    -0.04660
C398        C  0.64288503  0.35233781  0.58086163     0.07560
C399        C  0.65739581  0.35681515  0.56648245     0.01360
H400        H  0.64637541  0.33528141  0.60943252     0.09010
H401        H  0.65493796  0.36368800  0.55182135     0.08090
N402        N  0.72252616  0.31631336  0.61956567    -0.35750
N403        N  0.74056962  0.31606067  0.61072996    -0.27930
C404        C  0.75413605  0.30814471  0.62374800    -0.03170
C405        C  0.74420001  0.30356130  0.64167490     0.05440
C406        C  0.72414402  0.30861919  0.63832215     0.03530
H407        H  0.76999959  0.30563585  0.62033705     0.08640
H408        H  0.71148491  0.30632709  0.64851037     0.07470
N409        N  0.83715194  0.34015489  0.42132812    -0.26920
N410        N  0.83590166  0.34794134  0.43974293    -0.34770
C411        C  0.85427334  0.35469122  0.44540392     0.01420
C412        C  0.86775485  0.35060410  0.42993894     0.07450
C413        C  0.85652142  0.34122695  0.41497189    -0.05650
H414        H  0.85782373  0.36073147  0.46023170     0.08120
H415        H  0.86207978  0.33517131  0.40077429     0.09320
Cu416      Cu  0.81036983  0.34574341  0.45767638     0.44170
Cu417      Cu  0.81257514  0.32774676  0.40624291     0.41990
Cu418      Cu  0.76531982  0.32456257  0.43468892     0.43880
N419        N  0.78414994  0.33950090  0.47357233    -0.34300
N420        N  0.76725806  0.33279787  0.46508413    -0.28560
C421        C  0.75290165  0.33098895  0.47948970    -0.04660
C422        C  0.76140554  0.33635687  0.49788047     0.07560
C423        C  0.78121611  0.34159276  0.49361194     0.01360
H424        H  0.73760682  0.32561882  0.47686979     0.09010
H425        H  0.79257560  0.34685921  0.50420470     0.08090
N426        N  0.76875320  0.31449398  0.40496370    -0.35750
N427        N  0.78589861  0.31589567  0.39463449    -0.27930
C428        C  0.78330732  0.30754364  0.37623662    -0.03170
C429        C  0.76368413  0.30005648  0.37496910     0.05440
C430        C  0.75485477  0.30499409  0.39342556     0.03530
H431        H  0.79498784  0.30685558  0.36473231     0.08640
H432        H  0.73959790  0.30145329  0.39834309     0.07470
N433        N  0.01570901  0.23843435  0.45897838    -0.26920
N434        N  0.03237752  0.24696031  0.45175424    -0.34770
C435        C  0.02896887  0.26682749  0.44865352     0.01420
C436        C  0.00906995  0.27086094  0.45377239     0.07450
C437        C  0.00102585  0.25256238  0.46014192    -0.05650
H438        H  0.03999255  0.27739267  0.44261355     0.08120
H439        H  0.98577900  0.24980515  0.46558451     0.09320
Cu440      Cu  0.05857334  0.23103018  0.44544190     0.44170
Cu441      Cu  0.01429012  0.20834044  0.46811880     0.41990
Cu442      Cu  0.06091218  0.17921095  0.46302735     0.43880
N443        N  0.08343508  0.21245860  0.44140395    -0.34300
N444        N  0.08481964  0.19392414  0.44891124    -0.28560
C445        C  0.10375410  0.18694670  0.44584489    -0.04660
C446        C  0.11450424  0.20163469  0.43546882     0.07560
C447        C  0.10122287  0.21757890  0.43287031     0.01360
H448        H  0.10935219  0.17244015  0.45107713     0.09010
H449        H  0.10460404  0.23229387  0.42643195     0.08090
N450        N  0.03438647  0.16782281  0.47547863    -0.35750
N451        N  0.01754273  0.17853175  0.47771031    -0.27930
C452        C  0.00343800  0.16692916  0.48683180    -0.03170
C453        C  0.01175293  0.14799484  0.49017371     0.05440
C454        C  0.03135452  0.14903481  0.48282619     0.03530
H455        H  0.98822411  0.17184499  0.49056363     0.08640
H456        H  0.04263323  0.13710612  0.48298933     0.07470
N457        N  0.99125871  0.32308180  0.45326956    -0.26920
N458        N  0.97485905  0.31336435  0.44697952    -0.34770
C459        C  0.97865774  0.29334233  0.44642245     0.01420
C460        C  0.99851435  0.29034967  0.45221479     0.07450
C461        C  0.00616312  0.30946830  0.45634020    -0.05650
H462        H  0.96782813  0.28186152  0.44187098     0.08120
H463        H  0.02120813  0.31314628  0.46177083     0.09320
Cu464      Cu  0.94804545  0.32739224  0.43909203     0.44170
Cu465      Cu  0.99186186  0.35411353  0.45911546     0.41990
Cu466      Cu  0.94441132  0.38060694  0.44964361     0.43880
N467        N  0.92193843  0.34399660  0.43454174    -0.34300
N468        N  0.92026693  0.36335114  0.43954888    -0.28560
C469        C  0.90074423  0.36898626  0.43787490    -0.04660
C470        C  0.88981144  0.35249170  0.43097246     0.07560
C471        C  0.90365083  0.33690376  0.42899501     0.01360
H472        H  0.89486612  0.38375831  0.44200454     0.09010
H473        H  0.90041185  0.32121355  0.42534441     0.08090
N474        N  0.97005276  0.39437146  0.46126407    -0.35750
N475        N  0.98710514  0.38470585  0.46540217    -0.27930
C476        C  0.99991622  0.39769439  0.47455066    -0.03170
C477        C  0.99048240  0.41647828  0.47628847     0.05440
C478        C  0.97167554  0.41378010  0.46731091     0.03530
H479        H  0.01480339  0.39355414  0.48004145     0.08640
H480        H  0.95982047  0.42495005  0.46545744     0.07470
N481        N  0.49194472  0.24273378  0.55495322    -0.26920
N482        N  0.47586138  0.25220407  0.56234725    -0.34770
C483        C  0.48018649  0.27194093  0.56498296     0.01420
C484        C  0.50008742  0.27502627  0.55941199     0.07450
C485        C  0.50722880  0.25622540  0.55325113    -0.05650
H486        H  0.46965583  0.28314458  0.57075930     0.08120
H487        H  0.52218276  0.25275313  0.54741473     0.09320
Cu488      Cu  0.44855333  0.23846560  0.56847560     0.44170
Cu489      Cu  0.49134049  0.21235518  0.54598106     0.41990
Cu490      Cu  0.44104177  0.18863385  0.54900211     0.43880
N491        N  0.42084803  0.22422650  0.56890796    -0.34300
N492        N  0.41762429  0.20639332  0.56032685    -0.28560
C493        C  0.39751123  0.20292602  0.55973997    -0.04660
C494        C  0.38782446  0.21921421  0.56880513     0.07560
C495        C  0.40303759  0.23238941  0.57450741     0.01360
H496        H  0.39046028  0.18987634  0.55268721     0.09010
H497        H  0.40122046  0.24749967  0.58070306     0.08090
N498        N  0.46707324  0.17389103  0.53910400    -0.35750
N499        N  0.48514725  0.18246782  0.53745002    -0.27930
C500        C  0.49823031  0.16878384  0.52972127    -0.03170
C501        C  0.48805580  0.15051018  0.52677681     0.05440
C502        C  0.46828011  0.15451515  0.53283047     0.03530
H503        H  0.51390336  0.17211638  0.52618273     0.08640
H504        H  0.45555792  0.14413790  0.53269072     0.07470
N505        N  0.51855517  0.32705568  0.55906801    -0.26920
N506        N  0.53506796  0.31719032  0.56471906    -0.34770
C507        C  0.53116477  0.29717765  0.56524859     0.01420
C508        C  0.51111916  0.29432841  0.56008015     0.07450
C509        C  0.50347714  0.31353126  0.55637618    -0.05650
H510        H  0.54201438  0.28563527  0.56951379     0.08120
H511        H  0.48824099  0.31733638  0.55163089     0.09320
Cu512      Cu  0.56209325  0.33108395  0.57186892     0.44170
Cu513      Cu  0.51803249  0.35818431  0.55352538     0.41990
Cu514      Cu  0.56789108  0.38226025  0.55494658     0.43880
N515        N  0.58866414  0.34716068  0.57497929    -0.34300
N516        N  0.59129064  0.36555272  0.56748161    -0.28560
C517        C  0.61097050  0.37066910  0.56917286    -0.04660
C518        C  0.62097643  0.35486059  0.57858127     0.07560
C519        C  0.60642086  0.34023484  0.58210788     0.01360
H520        H  0.61757714  0.38458325  0.56349449     0.09010
H521        H  0.60883183  0.32510628  0.58798545     0.08090
N522        N  0.54167375  0.39669679  0.54548290    -0.35750
N523        N  0.52343014  0.38826567  0.54537933    -0.27930
C524        C  0.50995461  0.40184864  0.53823751    -0.03170
C525        C  0.52028114  0.41957279  0.53376211     0.05440
C526        C  0.54031934  0.41575231  0.53838100     0.03530
H527        H  0.49397503  0.39886517  0.53595296     0.08640
H528        H  0.55303471  0.42597011  0.53646584     0.07470
N529        N  0.26491341  0.24104566  0.53495347    -0.26920
N530        N  0.28193266  0.23467330  0.52640105    -0.34770
C531        C  0.27826066  0.22926413  0.50715487     0.01420
C532        C  0.25787689  0.23190850  0.50349333     0.07450
C533        C  0.24976824  0.23930740  0.52139675    -0.05650
H534        H  0.28947038  0.22306687  0.49687916     0.08120
H535        H  0.23408844  0.24320555  0.52432038     0.09320
Cu536      Cu  0.30909724  0.23133877  0.54125841     0.44170
Cu537      Cu  0.26335282  0.25206793  0.56454945     0.41990
Cu538      Cu  0.31164696  0.24953477  0.59169466     0.43880
N539        N  0.33473967  0.22861470  0.55869123    -0.34300
N540        N  0.33617681  0.23640731  0.57706095    -0.28560
C541        C  0.35526037  0.23387865  0.58378277    -0.04660
C542        C  0.36606233  0.22355107  0.56904848     0.07560
C543        C  0.35262816  0.22042063  0.55336787     0.01360
H544        H  0.36086457  0.23924496  0.59822364     0.09010
H545        H  0.35586951  0.21364249  0.53878290     0.08090
N546        N  0.28480383  0.26033649  0.60403344    -0.35750
N547        N  0.26734327  0.26185618  0.59433565    -0.27930
C548        C  0.25342187  0.26991555  0.60700629    -0.03170
C549        C  0.26246652  0.27322987  0.62574199     0.05440
C550        C  0.28239430  0.26699435  0.62307707     0.03530
H551        H  0.23794281  0.27324230  0.60275121     0.08640
H552        H  0.29438990  0.26705602  0.63423221     0.07470
N553        N  0.16576128  0.21074639  0.41800728    -0.26920
N554        N  0.16917947  0.20387713  0.43646519    -0.34770
C555        C  0.15152858  0.19811935  0.44487750     0.01420
C556        C  0.13625382  0.20189734  0.43115530     0.07450
C557        C  0.14571525  0.21002751  0.41433727    -0.05650
H558        H  0.14975303  0.19333050  0.46044553     0.08120
H559        H  0.13850721  0.21576111  0.40080041     0.09320
Cu560      Cu  0.19661511  0.20716787  0.45091843     0.44170
Cu561      Cu  0.18849448  0.22198862  0.39947907     0.41990
Cu562      Cu  0.23923948  0.22457046  0.42111569     0.43880
N563        N  0.22357530  0.21691941  0.46328403    -0.34300
N564        N  0.23958785  0.22236791  0.45248931    -0.28560
C565        C  0.25443266  0.22822322  0.46518436    -0.04660
C566        C  0.24713285  0.22679317  0.48477740     0.07560
C567        C  0.22755374  0.21963414  0.48304333     0.01360
H568        H  0.26910373  0.23391263  0.46047700     0.09010
H569        H  0.21695731  0.21662899  0.49520283     0.08090
N570        N  0.23258701  0.23151782  0.39117792    -0.35750
N571        N  0.21400015  0.23123809  0.38361770    -0.27930
C572        C  0.21445443  0.23863883  0.36467514    -0.03170
C573        C  0.23425846  0.24371421  0.36008761     0.05440
C574        C  0.24539575  0.23897825  0.37713880     0.03530
H575        H  0.20125510  0.24077226  0.35519485     0.08640
H576        H  0.26139276  0.24176096  0.37954911     0.07470
N577        N  0.70069842  0.98621713  0.74230881    -0.26920
N578        N  0.69461898  0.99578963  0.72582263    -0.34770
C579        C  0.69409190  0.01585812  0.72941310     0.01420
C580        C  0.69971882  0.01908054  0.74923263     0.07450
C581        C  0.70369204  0.00001377  0.75707140    -0.05650
H582        H  0.68954536  0.02719940  0.71849639     0.08120
H583        H  0.70882535  0.99648544  0.77221405     0.09320
Cu584      Cu  0.68701496  0.98149384  0.69918288     0.44170
Cu585      Cu  0.70634829  0.95508445  0.74307250     0.41990
Cu586      Cu  0.70504546  0.93082650  0.69319747     0.43880
N587        N  0.68378583  0.96534550  0.67272183    -0.34300
N588        N  0.69173680  0.94714844  0.66995224    -0.28560
C589        C  0.68982002  0.94198623  0.65033979    -0.04660
C590        C  0.67979004  0.95755676  0.64054538     0.07560
C591        C  0.67614165  0.97208781  0.65515295     0.01360
H592        H  0.69573474  0.92820800  0.64363181     0.09010
H593        H  0.66981134  0.98706210  0.65288122     0.08090
N594        N  0.71469399  0.91659194  0.71943981    -0.35750
N595        N  0.71453173  0.92497446  0.73766851    -0.27930
C596        C  0.72155436  0.91136303  0.75115044    -0.03170
C597        C  0.72633224  0.89365304  0.74086397     0.05440
C598        C  0.72195860  0.89758853  0.72081348     0.03530
H599        H  0.72366689  0.91435284  0.76712706     0.08640
H600        H  0.72405197  0.88741903  0.70810662     0.07470
N601        N  0.70416755  0.07130833  0.76679867    -0.26920
N602        N  0.69769828  0.06214466  0.78339226    -0.34770
C603        C  0.69559642  0.04218954  0.77977707     0.01420
C604        C  0.70057331  0.03863283  0.75982609     0.07450
C605        C  0.70582419  0.05738487  0.75193093    -0.05650
H606        H  0.69038320  0.03118672  0.79076204     0.07160
H607        H  0.71086675  0.06058826  0.73666808     0.09320
Cu608      Cu  0.69146479  0.07688996  0.81013987     0.44170
Cu609      Cu  0.71181496  0.10202445  0.76604316     0.41990
Cu610      Cu  0.71038208  0.12740980  0.81547941     0.43880
N611        N  0.68921452  0.09316463  0.83661313    -0.34300
N612        N  0.69744190  0.11128417  0.83911664    -0.28560
C613        C  0.69613651  0.11646690  0.85878057    -0.04660
C614        C  0.68621842  0.10098997  0.86889092     0.07560
C615        C  0.68199130  0.08650347  0.85441206     0.01360
H616        H  0.70239761  0.13018377  0.86529513     0.09010
H617        H  0.67554790  0.07159726  0.85688250     0.08090
N618        N  0.72034408  0.14099636  0.78897648    -0.35750
N619        N  0.72071712  0.13201544  0.77102941    -0.27930
C620        C  0.72822344  0.14515437  0.75731860    -0.03170
C621        C  0.73244417  0.16326169  0.76708251     0.05440
C622        C  0.72753425  0.16001195  0.78714156     0.03530
H623        H  0.73072721  0.14168555  0.74149512     0.08640
H624        H  0.72931408  0.17060309  0.79955440     0.07470
N625        N  0.70490684  0.98050519  0.51662117    -0.26920
N626        N  0.71438555  0.97376896  0.53290466    -0.34770
C627        C  0.73435581  0.97242964  0.52906652     0.01420
C628        C  0.73759465  0.97817579  0.50928696     0.07450
C629        C  0.71864663  0.98308913  0.50171905    -0.05650
H630        H  0.74563622  0.96741710  0.53984263     0.08120
H631        H  0.71520849  0.98875562  0.48674676     0.09320
Cu632      Cu  0.70016754  0.96661347  0.55971640     0.44170
Cu633      Cu  0.67411014  0.98773633  0.51649005     0.41990
Cu634      Cu  0.64970374  0.98510841  0.56630107     0.43880
N635        N  0.68434201  0.96367677  0.58641324    -0.34300
N636        N  0.66622595  0.97174309  0.58935922    -0.28560
C637        C  0.66133357  0.97004965  0.60905731    -0.04660
C638        C  0.67698728  0.96004363  0.61873708     0.07560
C639        C  0.69129322  0.95617634  0.60396609     0.01360
H640        H  0.64770889  0.97614836  0.61590325     0.09010
H641        H  0.70627671  0.94982814  0.60610158     0.08090
N642        N  0.63555340  0.99553879  0.54032706    -0.35750
N643        N  0.64417562  0.99630441  0.52222489    -0.27930
C644        C  0.63071503  0.00391701  0.50893257    -0.03170
C645        C  0.61275999  0.00778500  0.51912094     0.05440
C646        C  0.61645595  0.00259076  0.53901429     0.03530
H647        H  0.63384726  0.00669626  0.49309368     0.08640
H648        H  0.60610336  0.00404772  0.55166266     0.07470
N649        N  0.83286654  0.97239583  0.42212295    -0.26920
N650        N  0.81415417  0.96533714  0.42376012    -0.34770
C651        C  0.80795064  0.95841400  0.40566175     0.01420
C652        C  0.82335117  0.96163226  0.39187262     0.07450
C653        C  0.83888449  0.97066354  0.40271330    -0.05650
H654        H  0.79281639  0.95290008  0.40247864     0.08120
H655        H  0.85323675  0.97606862  0.39683915     0.09320
Cu656      Cu  0.79659241  0.96875948  0.44937815     0.44170
Cu657      Cu  0.84870457  0.98469624  0.44641065     0.41990
Cu658      Cu  0.82035708  0.99079976  0.49352031     0.43880
N659        N  0.78106537  0.97572902  0.47559872    -0.34300
N660        N  0.78985205  0.98277994  0.49216445    -0.28560
C661        C  0.77571660  0.98464486  0.50677223    -0.04660
C662        C  0.75717456  0.97895503  0.49876839     0.07560
C663        C  0.76107035  0.97347463  0.47898944     0.01360
H664        H  0.77864525  0.99010955  0.52194903     0.09010
H665        H  0.75029225  0.96777797  0.46801752     0.08090
N666        N  0.85070455  0.99880176  0.48999816    -0.35750
N667        N  0.86105193  0.99609837  0.47304786    -0.27930
C668        C  0.88022100  0.00248919  0.47585330    -0.03170
C669        C  0.88217760  0.00969226  0.49552324     0.05440
C670        C  0.86297169  0.00730277  0.50391283     0.03530
H671        H  0.89185427  0.00195965  0.46429744     0.08640
H672        H  0.85804018  0.01177826  0.51888817     0.07470
N673        N  0.80980837  0.11536318  0.17206020    -0.26920
N674        N  0.81872366  0.09755226  0.17432052    -0.34770
C675        C  0.82667147  0.09159987  0.15654277     0.01420
C676        C  0.82223748  0.10621315  0.14230894     0.07450
C677        C  0.81140276  0.12101509  0.15255406    -0.05650
H678        H  0.83386054  0.07706993  0.15388816     0.08120
H679        H  0.80480625  0.13463037  0.14622667     0.09320
Cu680      Cu  0.81682160  0.08073886  0.20047310     0.44170
Cu681      Cu  0.79588801  0.13063801  0.19588321     0.41990
Cu682      Cu  0.79769587  0.10555649  0.24531447     0.43880
N683        N  0.81121090  0.06573675  0.22721076    -0.34300
N684        N  0.80519647  0.07481879  0.24404733    -0.28560
C685        C  0.80362001  0.06078015  0.25876404    -0.04660
C686        C  0.80849934  0.04203396  0.25056224     0.07560
C687        C  0.81313997  0.04572108  0.23055049     0.01360
H688        H  0.79879080  0.06389550  0.27412180     0.09010
H689        H  0.81789585  0.03474225  0.21930353     0.08090
N690        N  0.78721775  0.13508099  0.24077400    -0.35750
N691        N  0.78582582  0.14373435  0.22275357    -0.27930
C692        C  0.77701019  0.16203747  0.22483404    -0.03170
C693        C  0.77291816  0.16522161  0.24512017     0.05440
C694        C  0.77950984  0.14781568  0.25480197     0.03530
H695        H  0.77365970  0.17222424  0.21245101     0.08640
H696        H  0.77812177  0.14436590  0.27075178     0.07470
N697        N  0.81129981  0.94947830  0.33966618    -0.26920
N698        N  0.81965955  0.96759717  0.33760743    -0.34770
C699        C  0.82643461  0.97403788  0.35568314     0.01420
C700        C  0.82179124  0.95940708  0.36986876     0.07450
C701        C  0.81206591  0.94409780  0.35928906    -0.05650
H702        H  0.83284466  0.98889713  0.35852522     0.08120
H703        H  0.80555395  0.93035576  0.36546668     0.09320
Cu704      Cu  0.81818769  0.98412980  0.31121762     0.44170
Cu705      Cu  0.79885992  0.93354554  0.31552221     0.41990
Cu706      Cu  0.80086332  0.95845723  0.26607547     0.43880
N707        N  0.81253452  0.99879806  0.28429141    -0.34300
N708        N  0.80719191  0.98943511  0.26739635    -0.28560
C709        C  0.80513674  0.00337194  0.25265601    -0.04660
C710        C  0.80898006  0.02233645  0.26089001     0.07560
C711        C  0.81353617  0.01888695  0.28094884     0.01360
H712        H  0.80059195  0.00002288  0.23727091     0.09010
H713        H  0.81752416  0.03010173  0.29225020     0.08090
N714        N  0.79085758  0.92878208  0.27060135    -0.35750
N715        N  0.78946523  0.92012998  0.28862944    -0.27930
C716        C  0.78080721  0.90174475  0.28657023    -0.03170
C717        C  0.77665706  0.89863241  0.26631216     0.05440
C718        C  0.78327710  0.91599067  0.25658210     0.03530
H719        H  0.77743424  0.89155107  0.29895427     0.08640
H720        H  0.78189809  0.91942126  0.24063144     0.07470
N721        N  0.67407045  0.08646177  0.92035183    -0.26920
N722        N  0.69204163  0.09498674  0.92289227    -0.34770
C723        C  0.69844240  0.10271156  0.90519633     0.01420
C724        C  0.68392637  0.09851652  0.89076592     0.07450
C725        C  0.66872464  0.08810211  0.90079483    -0.05650
H726        H  0.71322175  0.10943915  0.90271566     0.08120
H727        H  0.65513370  0.08163039  0.89425499     0.09320
Cu728      Cu  0.70843291  0.09253871  0.94924691     0.44170
Cu729      Cu  0.65837212  0.07235392  0.94359588     0.41990
Cu730      Cu  0.68269752  0.07230513  0.99319353     0.43880
N731        N  0.72274861  0.08652881  0.97623746    -0.34300
N732        N  0.71329111  0.08022186  0.99274224    -0.28560
C733        C  0.72692712  0.07862980  0.00780403    -0.04660
C734        C  0.74580985  0.08377012  0.00015982     0.07560
C735        C  0.74264202  0.08860273  0.98013151     0.01360
H736        H  0.72345041  0.07362069  0.02301187     0.09010
H737        H  0.75386805  0.09365035  0.96927682     0.08090
N738        N  0.65350854  0.06147718  0.98774120    -0.35750
N739        N  0.64505902  0.06095279  0.96964244    -0.27930
C740        C  0.62680329  0.05196578  0.97101190    -0.03170
C741        C  0.62325838  0.04659036  0.99106535     0.05440
C742        C  0.64070881  0.05295866  0.00113697     0.03530
H743        H  0.61732643  0.04922753  0.95801035     0.08640
H744        H  0.64406186  0.05145835  0.01707841     0.07470
N745        N  0.83668395  0.09379633  0.09074203    -0.26920
N746        N  0.81807561  0.10073719  0.08804882    -0.34770
C747        C  0.81071431  0.10754691  0.10577448     0.01420
C748        C  0.82525139  0.10437888  0.12041762     0.07450
C749        C  0.84148412  0.09550877  0.11046064    -0.05650
H750        H  0.79534372  0.11283140  0.10811080     0.08120
H751        H  0.85543493  0.09007868  0.11715121     0.09320
Cu752      Cu  0.80214505  0.09696654  0.06153670     0.44170
Cu753      Cu  0.85387726  0.08138852  0.06742801     0.41990
Cu754      Cu  0.82864087  0.07607951  0.01840215     0.43880
N755        N  0.78806177  0.08927285  0.03480237    -0.34300
N756        N  0.79777400  0.08264960  0.01855416    -0.28560
C757        C  0.78423476  0.07981047  0.00358066    -0.04660
C758        C  0.76515020  0.08445021  0.01103598     0.07560
C759        C  0.76809965  0.09030233  0.03085205     0.01360
H760        H  0.78793219  0.07428869  0.98858311     0.09010
H761        H  0.75666301  0.09530773  0.04151330     0.08090
N762        N  0.85858438  0.06776061  0.02385394    -0.35750
N763        N  0.86770222  0.06982058  0.04158580    -0.27930
C764        C  0.88665890  0.06237647  0.04020221    -0.03170
C765        C  0.88947413  0.05503738  0.02080158     0.05440
C766        C  0.87147857  0.05877788  0.01078569     0.03530
H767        H  0.89738479  0.06179531  0.05257266     0.08640
H768        H  0.86786185  0.05485758  0.99528976     0.07470
C769        C  0.52884269  0.97856070  0.02543060     0.03500
C770        C  0.51889541  0.98662330  0.04242705    -0.12650
C771        C  0.52638990  0.00413835  0.05190102     0.01000
C772        C  0.54366068  0.01381538  0.04409289    -0.11170
C773        C  0.55432341  0.00527728  0.02775222     0.03500
C774        C  0.54675181  0.98767704  0.01838889    -0.10590
H775        H  0.50523736  0.97942459  0.04811740     0.09090
H776        H  0.54895710  0.02782220  0.05092427     0.06620
H777        H  0.55446164  0.98142493  0.00527791     0.06470
C778        C  0.51750084  0.07613463  0.48847168     0.03500
C779        C  0.50904627  0.06921337  0.47011072    -0.12650
C780        C  0.51634950  0.05156047  0.46067468     0.01000
C781        C  0.53324532  0.04154192  0.46868171    -0.11170
C782        C  0.54244949  0.04861670  0.48645681     0.03500
C783        C  0.53413864  0.06544674  0.49659191    -0.10590
H784        H  0.49673182  0.07742489  0.46305246     0.09090
H785        H  0.53920964  0.02822223  0.46106979     0.06620
H786        H  0.54078061  0.07014788  0.51083601     0.06470
N787        N  0.74050327  0.72743253  0.96075568    -0.26920
N788        N  0.72406094  0.72114014  0.97038926    -0.34770
C789        C  0.72777408  0.72053935  0.99037327     0.01420
C790        C  0.74763566  0.72633566  0.99343031     0.07450
C791        C  0.75536574  0.73046773  0.97438378    -0.05650
H792        H  0.71691244  0.71589163  0.00176158     0.08120
H793        H  0.77045648  0.73584599  0.97077164     0.09320
Cu794      Cu  0.69735855  0.71348909  0.95614015     0.44170
Cu795      Cu  0.74099940  0.73369001  0.92987003     0.41990
Cu796      Cu  0.69142054  0.73183352  0.90538888     0.43880
N797        N  0.67102014  0.70997901  0.93980803    -0.34300
N798        N  0.66829286  0.71791482  0.92165888    -0.28560
C799        C  0.64865841  0.71584188  0.91651130    -0.04660
C800        C  0.63879643  0.70573924  0.93201350     0.07560
C801        C  0.65340039  0.70220473  0.94650556     0.01360
H802        H  0.64193565  0.72183523  0.90283799     0.09010
H803        H  0.65105767  0.69596170  0.96147420     0.08090
N804        N  0.71757887  0.74283224  0.89162156    -0.35750
N805        N  0.73567857  0.74301182  0.90023656    -0.27930
C806        C  0.74920596  0.75094133  0.88715255    -0.03170
C807        C  0.73921684  0.75590036  0.86935745     0.05440
C808        C  0.71911850  0.75070712  0.87291370     0.03530
H809        H  0.76515025  0.75303577  0.89042200     0.08640
H810        H  0.70638921  0.75282583  0.86282115     0.07470
N811        N  0.76579479  0.73206631  0.04513190    -0.26920
N812        N  0.78201648  0.72441729  0.03611597    -0.34770
C813        C  0.77813721  0.72165277  0.01635595     0.01420
C814        C  0.75837011  0.72739501  0.01280802     0.07450
C815        C  0.75086402  0.73380342  0.03134258    -0.05650
H816        H  0.78878608  0.71545673  0.00550255     0.08120
H817        H  0.73585347  0.73967929  0.03447007     0.09320
Cu818      Cu  0.80851319  0.71727023  0.05085888     0.44170
Cu819      Cu  0.76560612  0.74088154  0.07546699     0.41990
Cu820      Cu  0.81298420  0.73151628  0.10291785     0.43880
N821        N  0.83480269  0.71369216  0.06715530    -0.34300
N822        N  0.83701847  0.72014166  0.08597114    -0.28560
C823        C  0.85675607  0.71883277  0.09103151    -0.04660
C824        C  0.86718720  0.71068750  0.07473177     0.07560
C825        C  0.85282791  0.70755389  0.05990989     0.01360
H826        H  0.86311163  0.72399332  0.10523375     0.09010
H827        H  0.85552800  0.70271295  0.04447430     0.08090
N828        N  0.78721611  0.74442493  0.11572934    -0.35750
N829        N  0.77051982  0.74886362  0.10563541    -0.27930
C830        C  0.75781993  0.75899598  0.11801815    -0.03170
C831        C  0.76680026  0.76101566  0.13700492     0.05440
C832        C  0.78532688  0.75109116  0.13487307     0.03530
H833        H  0.74321415  0.76471709  0.11328557     0.08640
H834        H  0.79682125  0.74866161  0.14622189     0.07470
N835        N  0.51497016  0.73293278  0.95487478    -0.26920
N836        N  0.53151921  0.74203821  0.94808721    -0.34770
C837        C  0.52797928  0.76200704  0.94616162     0.01420
C838        C  0.50811768  0.76563590  0.95159491     0.07450
C839        C  0.50019824  0.74691349  0.95694414    -0.05650
H840        H  0.53898070  0.77299151  0.94087246     0.08120
H841        H  0.48503840  0.74378559  0.96243324     0.09320
Cu842      Cu  0.55817283  0.72726150  0.94136844     0.44170
Cu843      Cu  0.51425462  0.70227511  0.96260374     0.41990
Cu844      Cu  0.56364579  0.67664935  0.95958126     0.43880
N845        N  0.58460530  0.71098232  0.93835958    -0.34300
N846        N  0.58720496  0.69277627  0.94628138    -0.28560
C847        C  0.60688643  0.68760691  0.94453125    -0.04660
C848        C  0.61688591  0.70317180  0.93461150     0.07560
C849        C  0.60232885  0.71770523  0.93088415     0.01360
H850        H  0.61350926  0.67384955  0.95052179     0.09010
H851        H  0.60473232  0.73268702  0.92462731     0.08090
N852        N  0.53738111  0.66345423  0.97095345    -0.35750
N853        N  0.51949948  0.67253907  0.97200493    -0.27930
C854        C  0.50609655  0.65977044  0.98068252    -0.03170
C855        C  0.51605787  0.64186416  0.98543833     0.05440
C856        C  0.53579017  0.64472255  0.97883213     0.03530
H857        H  0.49031051  0.66333740  0.98345091     0.08640
H858        H  0.54825018  0.63411414  0.98009575     0.07470
N859        N  0.41969540  0.85931396  0.94906969    -0.26920
N860        N  0.42165845  0.84123909  0.94057759    -0.34770
C861        C  0.40367880  0.83530816  0.93305439     0.01420
C862        C  0.38962507  0.85021658  0.93733098     0.07450
C863        C  0.40019459  0.86517403  0.94761248    -0.05650
H864        H  0.40075898  0.82060012  0.92634044     0.08120
H865        H  0.39406780  0.87900090  0.95402637     0.09320
Cu866      Cu  0.44763001  0.82403836  0.94258426     0.44170
Cu867      Cu  0.44375516  0.87460538  0.96256069     0.41990
Cu868      Cu  0.49293334  0.84905954  0.96008467     0.43880
N869        N  0.47440137  0.80899321  0.94817288    -0.34300
N870        N  0.49141473  0.81820976  0.95347038    -0.28560
C871        C  0.50612928  0.80418824  0.95535218    -0.04660
C872        C  0.49775229  0.78531191  0.95145196     0.07560
C873        C  0.47763355  0.78888549  0.94703144     0.01360
H874        H  0.52159597  0.80742114  0.95979904     0.09010
H875        H  0.46624839  0.77776502  0.94297418     0.08090
N876        N  0.48871469  0.87833510  0.97118555    -0.35750
N877        N  0.47079883  0.88723175  0.97279412    -0.27930
C878        C  0.47316810  0.90533007  0.98194451    -0.03170
C879        C  0.49354542  0.90801547  0.98648850     0.05440
C880        C  0.50294737  0.89064311  0.97912552     0.03530
H881        H  0.46084210  0.91563280  0.98533884     0.08640
H882        H  0.51895280  0.88706723  0.97955041     0.07470
N883        N  0.91905320  0.70037940  0.05955707    -0.26920
N884        N  0.92122760  0.71813009  0.06865476    -0.34770
C885        C  0.90334184  0.72385153  0.07662945     0.01420
C886        C  0.88917820  0.70912399  0.07202510     0.07450
C887        C  0.89955405  0.69453471  0.06106713    -0.05650
H888        H  0.90055804  0.73830756  0.08392710     0.08120
H889        H  0.89330244  0.68094901  0.05427514     0.09320
Cu890      Cu  0.94747383  0.73507474  0.06698740     0.44170
Cu891      Cu  0.94278950  0.68527708  0.04539837     0.41990
Cu892      Cu  0.99243189  0.70933698  0.04883896     0.43880
N893        N  0.97469488  0.74955186  0.06162566    -0.34300
N894        N  0.99150055  0.74003384  0.05615217    -0.28560
C895        C  0.00659357  0.75371025  0.05459978    -0.04660
C896        C  0.99869857  0.77269438  0.05886662     0.07560
C897        C  0.97846110  0.76954863  0.06318176     0.01360
H898        H  0.02199832  0.75018291  0.05012818     0.09010
H899        H  0.96736665  0.78087028  0.06747854     0.08090
N900        N  0.98770149  0.68029645  0.03738609    -0.35750
N901        N  0.96952185  0.67199672  0.03532261    -0.27930
C902        C  0.97147077  0.65386249  0.02614058    -0.03170
C903        C  0.99183794  0.65048480  0.02249968     0.05440
C904        C  0.00172543  0.66752758  0.02975238     0.03530
H905        H  0.95898683  0.64385279  0.02243856     0.08640
H906        H  0.01783317  0.67063697  0.02905922     0.07470
N907        N  0.08894221  0.86413490  0.07128336    -0.26920
N908        N  0.08632371  0.84517379  0.07722677    -0.34770
C909        C  0.10410667  0.83763327  0.08363688     0.01420
C910        C  0.11868769  0.85245235  0.08123645     0.07450
C911        C  0.10867033  0.86901129  0.07320748    -0.05650
H912        H  0.10654360  0.82201592  0.08806205     0.08120
H913        H  0.11533077  0.88323777  0.06843064     0.09320
Cu914      Cu  0.05994482  0.82918361  0.07245063     0.44170
Cu915      Cu  0.06566016  0.88163183  0.05952359     0.41990
Cu916      Cu  0.01820316  0.85515474  0.04836445     0.43880
N917        N  0.03345298  0.81502371  0.06395215    -0.34300
N918        N  0.01765242  0.82451243  0.05609105    -0.28560
C919        C  0.00262360  0.81093841  0.05325256    -0.04660
C920        C  0.00962915  0.79206157  0.05919060     0.07560
C921        C  0.02920593  0.79517746  0.06578161     0.01360
H922        H  0.98791877  0.81444629  0.04689111     0.09010
H923        H  0.03949472  0.78393940  0.07184461     0.08090
N924        N  0.02382412  0.88548282  0.04137630    -0.35750
N925        N  0.04060984  0.89522544  0.04632953    -0.27930
C926        C  0.03920836  0.91460527  0.04018641    -0.03170
C927        C  0.02085200  0.91730977  0.03013775     0.05440
C928        C  0.01152257  0.89833550  0.03147524     0.03530
H929        H  0.05089635  0.92566233  0.04313215     0.08640
H930        H  0.99690347  0.89390378  0.02555110     0.07470
N931        N  0.33739171  0.83802367  0.92476810    -0.26920
N932        N  0.33519987  0.84632045  0.94287033    -0.34770
C933        C  0.35325230  0.85310712  0.94941701     0.01420
C934        C  0.36760089  0.84853240  0.93490625     0.07450
C935        C  0.35712409  0.83885369  0.91951241    -0.05650
H936        H  0.35596314  0.85945947  0.96428973     0.08120
H937        H  0.36344430  0.83240234  0.90580996     0.09320
Cu938      Cu  0.30881560  0.84471055  0.95946280     0.44170
Cu939      Cu  0.31324967  0.82552044  0.90875956     0.41990
Cu940      Cu  0.26379478  0.82730459  0.93422861     0.43880
N941        N  0.28200691  0.83885629  0.97436391    -0.34300
N942        N  0.26505947  0.83350642  0.96509982    -0.28560
C943        C  0.25034005  0.83121329  0.97906864    -0.04660
C944        C  0.25866558  0.83488874  0.99795225     0.07560
C945        C  0.27874528  0.83961295  0.99443192     0.01360
H946        H  0.23493590  0.82656984  0.97579591     0.09010
H947        H  0.29011270  0.84352404  0.00558141     0.08090
N948        N  0.26818254  0.81712874  0.90469587    -0.35750
N949        N  0.28615009  0.81587436  0.89575747    -0.27930
C950        C  0.28386173  0.80712287  0.87747540    -0.03170
C951        C  0.26353586  0.80274773  0.87479531     0.05440
C952        C  0.25399830  0.80932524  0.89225592     0.03530
H953        H  0.29613068  0.80385198  0.86706751     0.08640
H954        H  0.23807018  0.80785418  0.89595955     0.07470
N955        N  0.17043204  0.83735122  0.09191435    -0.26920
N956        N  0.17254335  0.84552979  0.07378509    -0.34770
C957        C  0.15469431  0.85329276  0.06783308     0.01420
C958        C  0.14060687  0.84950124  0.08281245     0.07450
C959        C  0.15096751  0.83921125  0.09779391    -0.05650
H960        H  0.15187745  0.85989932  0.05311312     0.08120
H961        H  0.14475085  0.83316091  0.11170125     0.09320
Cu962      Cu  0.19853826  0.84285495  0.05670504     0.44170
Cu963      Cu  0.19427606  0.82397581  0.10735353     0.41990
Cu964      Cu  0.24295341  0.82179100  0.08069137     0.43880
N965        N  0.22508807  0.83669935  0.04145811    -0.34300
N966        N  0.24179384  0.82996194  0.05022884    -0.28560
C967        C  0.25648711  0.82843025  0.03610681    -0.04660
C968        C  0.24837103  0.83407056  0.01762917     0.07560
C969        C  0.22846081  0.83911971  0.02155383     0.01360
H970        H  0.27176119  0.82316160  0.03897781     0.09010
H971        H  0.21732489  0.84453657  0.01082574     0.08090
N972        N  0.23862897  0.81262265  0.11060729    -0.35750
N973        N  0.22096520  0.81343297  0.12016565    -0.27930
C974        C  0.22319915  0.80598332  0.13898025    -0.03170
C975        C  0.24319644  0.80029441  0.14140979     0.05440
C976        C  0.25253179  0.80448441  0.12311075     0.03530
H977        H  0.21105685  0.80439889  0.14990746     0.08640
H978        H  0.26816247  0.80149393  0.11907101     0.07470
C979        C  0.02154262  0.55288272  0.95550862     0.03500
C980        C  0.03915000  0.54377014  0.96322113    -0.12650
C981        C  0.05071700  0.55350343  0.97811874     0.01000
C982        C  0.04423417  0.57223594  0.98590154    -0.11170
C983        C  0.02559744  0.58084949  0.97990194     0.03500
C984        C  0.01424275  0.57067001  0.96488120    -0.10590
H985        H  0.04420628  0.52928496  0.95728994     0.09090
H986        H  0.05368372  0.57977311  0.99699537     0.06620
H987        H  0.99973339  0.57661976  0.96024598     0.06470
C988        C  0.48809878  0.54424052  0.05128566     0.03500
C989        C  0.47062932  0.53459454  0.04375888    -0.12650
C990        C  0.46018218  0.54263291  0.02710415     0.01000
C991        C  0.46787204  0.55982434  0.01722581    -0.11170
C992        C  0.48550406  0.56934889  0.02432006     0.03500
C993        C  0.49536955  0.56176319  0.04153952    -0.10590
H994        H  0.46493641  0.52100213  0.05105444     0.09090
H995        H  0.46012015  0.56581075  0.00406374     0.06620
H996        H  0.50867339  0.56950871  0.04732368     0.06470
N997        N  0.96007388  0.76592428  0.70537573    -0.26920
N998        N  0.96937885  0.74985617  0.69770642    -0.34770
C999        C  0.98932209  0.75377307  0.69598294     0.01420
C1000       C  0.99268518  0.77338407  0.70244807     0.07450
C1001       C  0.97386272  0.78075797  0.70817186    -0.05650
H1002       H  0.00044479  0.74327041  0.69000090     0.08120
H1003       H  0.97051442  0.79562688  0.71430522     0.09320
Cu1004     Cu  0.95488821  0.72345577  0.68915752     0.44170
Cu1005     Cu  0.92933530  0.76631744  0.71294819     0.41990
Cu1006     Cu  0.90269570  0.71892205  0.70314567     0.43880
N1007       N  0.93814113  0.69746775  0.68431683    -0.34300
N1008       N  0.91922033  0.69537462  0.69062445    -0.28560
C1009       C  0.91357156  0.67589622  0.68834813    -0.04660
C1010       C  0.92957361  0.66545693  0.67971816     0.07560
C1011       C  0.94490580  0.67953247  0.67734262     0.01360
H1012       H  0.89919224  0.66967516  0.69326916     0.09010
H1013       H  0.96032154  0.67661250  0.67248348     0.08090
N1014       N  0.88919192  0.74432318  0.71568201    -0.35750
N1015       N  0.89881877  0.76142603  0.71984524    -0.27930
C1016       C  0.88571372  0.77431079  0.72880868    -0.03170
C1017       C  0.86677263  0.76502564  0.72994612     0.05440
C1018       C  0.86974137  0.74596575  0.72154203     0.03530
H1019       H  0.88987091  0.78917698  0.73439298     0.08640
H1020       H  0.85859513  0.73403700  0.71978782     0.07470
N1021       N  0.04471489  0.79165891  0.70560120    -0.26920
N1022       N  0.03527205  0.80810419  0.69907907    -0.34770
C1023       C  0.01534027  0.80419462  0.69732464     0.01420
C1024       C  0.01211699  0.78421834  0.70256834     0.07450
C1025       C  0.03101751  0.77661056  0.70760463    -0.05650
H1026       H  0.00410578  0.81501585  0.69225093     0.08120
H1027       H  0.03445826  0.76145953  0.71287618     0.09320
Cu1028     Cu  0.04951344  0.83513877  0.69242745     0.44170
Cu1029     Cu  0.07538994  0.79121919  0.71329323     0.41990
Cu1030     Cu  0.10049331  0.84048704  0.70968699     0.43880
N1031       N  0.06572136  0.86172404  0.68963948    -0.34300
N1032       N  0.08409545  0.86413965  0.69723796    -0.28560
C1033       C  0.08934307  0.88381495  0.69584703    -0.04660
C1034       C  0.07366721  0.89404877  0.68647352     0.07560
C1035       C  0.05895579  0.87963003  0.68269766     0.01360
H1036       H  0.10326040  0.89025964  0.70169825     0.09010
H1037       H  0.04388250  0.88222431  0.67676781     0.08090
N1038       N  0.11413961  0.81456911  0.72093908    -0.35750
N1039       N  0.10516360  0.79668083  0.72249719    -0.27930
C1040       C  0.11809851  0.78362270  0.73137565    -0.03170
C1041       C  0.13602840  0.79382191  0.73572240     0.05440
C1042       C  0.13298197  0.81332588  0.72854710     0.03530
H1043       H  0.11450459  0.76799334  0.73488462     0.08640
H1044       H  0.14360095  0.82584241  0.72889503     0.07470
N1045       N  0.95461413  0.54248322  0.70813737    -0.26920
N1046       N  0.94736788  0.55879643  0.71733991    -0.34770
C1047       C  0.94555004  0.55507844  0.73724746     0.01420
C1048       C  0.95152068  0.53534603  0.74071165     0.07450
C1049       C  0.95705941  0.52769315  0.72196742    -0.05650
H1050       H  0.93993525  0.56584568  0.74830019     0.08120
H1051       H  0.96291831  0.51269628  0.71871542     0.09320
Cu1052     Cu  0.93972776  0.58532333  0.70273501     0.44170
Cu1053     Cu  0.96229982  0.54191472  0.67751694     0.41990
Cu1054     Cu  0.95361210  0.58945948  0.65055925     0.43880
N1055       N  0.93555943  0.61138620  0.68607290    -0.34300
N1056       N  0.94182542  0.61335982  0.66716986    -0.28560
C1057       C  0.93994245  0.63289503  0.66161390    -0.04660
C1058       C  0.93158876  0.64347155  0.67766224     0.07560
C1059       C  0.92897881  0.62943238  0.69290676     0.01360
H1060       H  0.94483660  0.63902434  0.64722442     0.09010
H1061       H  0.92413108  0.63240551  0.70829005     0.08090
N1062       N  0.96634843  0.56386504  0.63754190    -0.35750
N1063       N  0.97018256  0.54682358  0.64734076    -0.27930
C1064       C  0.98017247  0.53412670  0.63482657    -0.03170
C1065       C  0.98281169  0.54363272  0.61624349     0.05440
C1066       C  0.97343510  0.56233361  0.61852818     0.03530
H1067       H  0.98559993  0.51926902  0.63916221     0.08640
H1068       H  0.97198233  0.57418967  0.60732985     0.07470
N1069       N  0.94637263  0.44684407  0.83419525    -0.26920
N1070       N  0.93913726  0.44855858  0.81563488    -0.34770
C1071       C  0.93232132  0.43039201  0.80937166     0.01420
C1072       C  0.93580094  0.41654695  0.82460414     0.07450
C1073       C  0.94486218  0.42737309  0.84007114    -0.05650
H1074       H  0.92660816  0.42723360  0.79434065     0.08120
H1075       H  0.95034491  0.42147939  0.85432979     0.09320
Cu1076     Cu  0.94194293  0.47453895  0.79854440     0.44170
Cu1077     Cu  0.95822390  0.47108781  0.85024796     0.41990
Cu1078     Cu  0.96114686  0.51943949  0.82368832     0.43880
N1079       N  0.94831845  0.50129936  0.78371385    -0.34300
N1080       N  0.95430914  0.51810214  0.79292661    -0.28560
C1081       C  0.95622156  0.53290870  0.77903415    -0.04660
C1082       C  0.95166223  0.52480235  0.76023825     0.07560
C1083       C  0.94680416  0.50475290  0.76372972     0.01360
H1084       H  0.96103199  0.54827350  0.78229757     0.09010
H1085       H  0.94210338  0.49359016  0.75264800     0.08090
N1086       N  0.96918093  0.51545863  0.85392710    -0.35750
N1087       N  0.96795007  0.49786538  0.86349884    -0.27930
C1088       C  0.97457542  0.50022164  0.88259946    -0.03170
C1089       C  0.98022971  0.52021903  0.88517914     0.05440
C1090       C  0.97683605  0.52944773  0.86670269     0.03530
H1091       H  0.97569127  0.48814278  0.89361793     0.08640
H1092       H  0.98000959  0.54506030  0.86274942     0.07470
N1093       N  0.06045052  0.94598246  0.67425490    -0.26920
N1094       N  0.06787875  0.94822193  0.69269175    -0.34770
C1095       C  0.07490298  0.93028511  0.69927252     0.01420
C1096       C  0.07135584  0.91601353  0.68439822     0.07450
C1097       C  0.06203873  0.92636852  0.66879678    -0.05650
H1098       H  0.08075046  0.92755990  0.71432513     0.08120
H1099       H  0.05635320  0.92004114  0.65478094     0.09320
Cu1100     Cu  0.06490744  0.97449698  0.70935450     0.44170
Cu1101     Cu  0.04780086  0.96967988  0.65803117     0.41990
Cu1102     Cu  0.04323764  0.01818517  0.68449228     0.43880
N1103       N  0.05860164  0.00139500  0.72399426    -0.34300
N1104       N  0.05175380  0.01783487  0.71481324    -0.28560
C1105       C  0.05020724  0.03290921  0.72851580    -0.04660
C1106       C  0.05590916  0.02532332  0.74717442     0.07560
C1107       C  0.06104326  0.00532628  0.74379984     0.01360
H1108       H  0.04483247  0.04806843  0.72525069     0.09010
H1109       H  0.06653724  0.99452295  0.75482389     0.08090
N1110       N  0.03357836  0.01316183  0.65491035    -0.35750
N1111       N  0.03562709  0.99565795  0.64525754    -0.27930
C1112       C  0.02767754  0.99735317  0.62660295    -0.03170
C1113       C  0.01991350  0.01670954  0.62452296     0.05440
C1114       C  0.02399675  0.02637286  0.64269904     0.03530
H1115       H  0.02705667  0.98519631  0.61558468     0.08640
H1116       H  0.02014269  0.04180629  0.64679563     0.07470
N1117       N  0.06755533  0.11548758  0.83883849    -0.26920
N1118       N  0.07403043  0.11285243  0.82006820    -0.34770
C1119       C  0.08077778  0.13061077  0.81271950     0.01420
C1120       C  0.07805144  0.14523989  0.82741588     0.07450
C1121       C  0.06947946  0.13524281  0.84374226    -0.05650
H1122       H  0.08575611  0.13298861  0.79728391     0.08120
H1123       H  0.06445832  0.14192161  0.85786376     0.09320
Cu1124     Cu  0.06979352  0.08647257  0.80387651     0.44170
Cu1125     Cu  0.05555001  0.09201184  0.85616093     0.41990
Cu1126     Cu  0.04756730  0.04381096  0.82975255     0.43880
N1127       N  0.06169911  0.05991571  0.78951706    -0.34300
N1128       N  0.05456226  0.04378621  0.79905080    -0.28560
C1129       C  0.05160342  0.02883316  0.78546004    -0.04660
C1130       C  0.05668037  0.03619771  0.76651498     0.07560
C1131       C  0.06292746  0.05593192  0.76960100     0.01360
H1132       H  0.04568150  0.01393609  0.78901780     0.09010
H1133       H  0.06831720  0.06650903  0.75828872     0.08090
N1134       N  0.03987719  0.04895643  0.85987527    -0.35750
N1135       N  0.04334942  0.06617099  0.86958040    -0.27930
C1136       C  0.03649833  0.06447099  0.88869132    -0.03170
C1137       C  0.02765600  0.04545813  0.89110453     0.05440
C1138       C  0.03036282  0.03603107  0.87246448     0.03530
H1139       H  0.03785774  0.07638765  0.89986782     0.08640
H1140       H  0.02530382  0.02102870  0.86810989     0.07470
N1141       N  0.08958592  0.19670168  0.81173998    -0.26920
N1142       N  0.07162276  0.19923124  0.82029817    -0.34770
C1143       C  0.06547740  0.18158862  0.82844163     0.01420
C1144       C  0.08014317  0.16717137  0.82451387     0.07450
C1145       C  0.09515249  0.17716610  0.81376149    -0.05650
H1146       H  0.05075310  0.17908890  0.83527513     0.08120
H1147       H  0.10877897  0.17060382  0.80736406     0.09320
Cu1148     Cu  0.05481669  0.22538233  0.81728757     0.44170
Cu1149     Cu  0.10502733  0.22003809  0.79725989     0.41990
Cu1150     Cu  0.07907784  0.26908908  0.79469753     0.43880
N1151       N  0.03967511  0.25181733  0.81041838    -0.34300
N1152       N  0.04855622  0.26828570  0.80316558    -0.28560
C1153       C  0.03446319  0.28295530  0.80122378    -0.04660
C1154       C  0.01588083  0.27505748  0.80710359     0.07560
C1155       C  0.01972026  0.25530733  0.81274866     0.01360
H1156       H  0.03741656  0.29804836  0.79548775     0.09010
H1157       H  0.00890266  0.24437644  0.81850377     0.08090
N1158       N  0.10883647  0.26415871  0.78496267    -0.35750
N1159       N  0.11803402  0.24630994  0.78567538    -0.27930
C1160       C  0.13682007  0.24814627  0.77786450    -0.03170
C1161       C  0.13971558  0.26812933  0.77221664     0.05440
C1162       C  0.12159857  0.27780018  0.77664650     0.03530
H1163       H  0.14754069  0.23580810  0.77629998     0.08640
H1164       H  0.11791208  0.29355215  0.77386643     0.07470
N1165       N  0.92339308  0.36430166  0.81286598    -0.26920
N1166       N  0.94168753  0.36218925  0.82072533    -0.34770
C1167       C  0.94830367  0.38031096  0.82732758     0.01420
C1168       C  0.93357404  0.39453241  0.82306378     0.07450
C1169       C  0.91803783  0.38396811  0.81377468    -0.05650
H1170       H  0.96331347  0.38315780  0.83332175     0.08120
H1171       H  0.90415567  0.39017369  0.80763607     0.09320
Cu1172     Cu  0.95810915  0.33569924  0.81859098     0.44170
Cu1173     Cu  0.90719525  0.34027272  0.80080463     0.41990
Cu1174     Cu  0.93231939  0.29089601  0.79970486     0.43880
N1175       N  0.97268009  0.30885134  0.81191020    -0.34300
N1176       N  0.96332649  0.29208967  0.80600359    -0.28560
C1177       C  0.97726688  0.27733628  0.80356580    -0.04660
C1178       C  0.99621006  0.28545716  0.80769124     0.07560
C1179       C  0.99275733  0.30543792  0.81284497     0.01360
H1180       H  0.97393765  0.26202671  0.79861991     0.09010
H1181       H  0.00395307  0.31661226  0.81726880     0.08090
N1182       N  0.90211681  0.29561789  0.79147801    -0.35750
N1183       N  0.89327594  0.31364447  0.79165941    -0.27930
C1184       C  0.87422099  0.31182475  0.78467370    -0.03170
C1185       C  0.87067343  0.29164496  0.78019305     0.05440
C1186       C  0.88879885  0.28184534  0.78432993     0.03530
H1187       H  0.86397897  0.32443116  0.78235235     0.08640
H1188       H  0.89218284  0.26596032  0.78187988     0.07470
C1189       C  0.95309616  0.04973619  0.52990179     0.03500
C1190       C  0.95926445  0.06872852  0.52237758    -0.12650
C1191       C  0.97644321  0.07861122  0.53018711     0.01000
C1192       C  0.98684724  0.06997106  0.54654554    -0.11170
C1193       C  0.98065777  0.05127950  0.55453428     0.03500
C1194       C  0.96387986  0.04119461  0.54616540    -0.10590
H1195       H  0.95088345  0.07577395  0.51017099     0.09090
H1196       H  0.00007953  0.07750530  0.55275875     0.06620
H1197       H  0.95942445  0.02657832  0.55222194     0.06470
C1198       C  0.05105424  0.51359431  0.52028648     0.03500
C1199       C  0.04241174  0.49765612  0.50907859    -0.12650
C1200       C  0.02486352  0.48762845  0.51603504     0.01000
C1201       C  0.01535962  0.49476769  0.53380880    -0.11170
C1202       C  0.02369323  0.51083870  0.54510362     0.03500
C1203       C  0.04171098  0.51997134  0.53826294    -0.10590
H1204       H  0.04935786  0.49319901  0.49488340     0.09090
H1205       H  0.00150155  0.48767905  0.53902960     0.06620
H1206       H  0.04862796  0.53206768  0.54699943     0.06470
C1207       C  0.98688416  0.01111295  0.96162532     0.03500
C1208       C  0.96897152  0.02027521  0.96885697    -0.12650
C1209       C  0.96103683  0.01541189  0.98803497     0.01000
C1210       C  0.97034216  0.99977605  0.99914415    -0.11170
C1211       C  0.98664453  0.98877135  0.99104089     0.03500
C1212       C  0.99556473  0.99522902  0.97284948    -0.10590
H1213       H  0.96145950  0.03153641  0.95961040     0.09090
H1214       H  0.96477990  0.99588271  0.01408251     0.06620
H1215       H  0.00924502  0.98784266  0.96749974     0.06470
C1216       C  0.77235184  0.79643212  0.79882350     0.03500
C1217       C  0.76315887  0.81415525  0.79152334    -0.12650
C1218       C  0.76759975  0.82165376  0.77192074     0.01000
C1219       C  0.78164829  0.81052382  0.76011576    -0.11170
C1220       C  0.79289441  0.79440924  0.76834244     0.03500
C1221       C  0.78779295  0.78714846  0.78761656    -0.10590
H1222       H  0.75243297  0.82173596  0.80137905     0.09090
H1223       H  0.78421485  0.81418853  0.74440665     0.06620
H1224       H  0.79580700  0.77433004  0.79401311     0.06470
C1225       C  0.20831395  0.76137329  0.77472761     0.03500
C1226       C  0.22124205  0.74728925  0.76521407    -0.12650
C1227       C  0.23787767  0.73879425  0.77556102     0.01000
C1228       C  0.24289479  0.74659373  0.79476861    -0.11170
C1229       C  0.23163172  0.76246475  0.80352571     0.03500
C1230       C  0.21355667  0.76855406  0.79410743    -0.10590
H1231       H  0.21809871  0.74257249  0.74983272     0.09090
H1232       H  0.25571703  0.74047331  0.80288536     0.06620
H1233       H  0.20378019  0.77929227  0.80180494     0.06470
C1234       C  0.77419459  0.23332089  0.73477591     0.03500
C1235       C  0.76740412  0.24348796  0.71737414    -0.12650
C1236       C  0.77737583  0.26102683  0.71052212     0.01000
C1237       C  0.79427521  0.26838664  0.72112773    -0.11170
C1238       C  0.80123472  0.25832472  0.73846972     0.03500
C1239       C  0.79094773  0.24105227  0.74544246    -0.10590
H1240       H  0.75439193  0.23775185  0.70912898     0.09090
H1241       H  0.80207972  0.28186349  0.71582724     0.06620
H1242       H  0.79617286  0.23346586  0.75901575     0.06470
C1243       C  0.73240636  0.80057798  0.20827099     0.03500
C1244       C  0.71805195  0.79080374  0.22055100    -0.12650
C1245       C  0.71155637  0.79969006  0.23879572     0.01000
C1246       C  0.72110568  0.81752993  0.24559979    -0.11170
C1247       C  0.73634221  0.82709201  0.23400816     0.03500
C1248       C  0.74101679  0.81895364  0.21483052    -0.10590
H1249       H  0.71157711  0.77649171  0.21563066     0.09090
H1250       H  0.71652288  0.82394272  0.25997888     0.06620
H1251       H  0.75173857  0.82660586  0.20503065     0.06470
C1252       C  0.72700184  0.23263166  0.28024198     0.03500
C1253       C  0.71140588  0.24281028  0.26966848    -0.12650
C1254       C  0.70156103  0.25963780  0.27821773     0.01000
C1255       C  0.70961377  0.26881609  0.29550286    -0.11170
C1256       C  0.72509552  0.25934287  0.30654487     0.03500
C1257       C  0.73260174  0.24056458  0.29939552    -0.10590
H1258       H  0.70666711  0.23810595  0.25477422     0.09090
H1259       H  0.70349997  0.28327927  0.30025087     0.06620
H1260       H  0.74315146  0.23234457  0.30881061     0.06470
C1261       C  0.20771514  0.30497561  0.73030182     0.03500
C1262       C  0.21704143  0.32204983  0.73899201    -0.12650
C1263       C  0.23335869  0.33166865  0.72932224     0.01000
C1264       C  0.23983979  0.32452797  0.71032408    -0.11170
C1265       C  0.23148947  0.30678964  0.70172139     0.03500
C1266       C  0.21543463  0.29706019  0.71203785    -0.10590
H1267       H  0.21161315  0.32784395  0.75338170     0.09090
H1268       H  0.25147713  0.33291390  0.70234080     0.06620
H1269       H  0.20891690  0.28322822  0.70600050     0.06470
C1270       C  0.27791789  0.75567209  0.20877600     0.03500
C1271       C  0.26918491  0.73782527  0.21691366    -0.12650
C1272       C  0.27905299  0.72678749  0.23236483     0.01000
C1273       C  0.29720335  0.73466489  0.24040895    -0.11170
C1274       C  0.30503393  0.75329138  0.23388741     0.03500
C1275       C  0.29589855  0.76320469  0.21754240    -0.10590
H1276       H  0.25458154  0.73272663  0.21144154     0.09090
H1277       H  0.30523968  0.72654710  0.25216577     0.06620
H1278       H  0.30271811  0.77706093  0.21193549     0.06470
C1279       C  0.46441874  0.51855517  0.49054883     0.03500
C1280       C  0.47435323  0.52566791  0.47311303    -0.12650
C1281       C  0.49262467  0.51690467  0.46655115     0.01000
C1282       C  0.50053552  0.50018781  0.47705328    -0.11170
C1283       C  0.48994087  0.49158711  0.49345773     0.03500
C1284       C  0.47212746  0.50122796  0.50031882    -0.10590
H1285       H  0.46802146  0.53826643  0.46471899     0.09090
H1286       H  0.51474975  0.49362327  0.47207080     0.06620
H1287       H  0.46412985  0.49515964  0.51328185     0.06470
C1288       C  0.28546898  0.28861634  0.25877125     0.03500
C1289       C  0.27394122  0.30492513  0.25153112    -0.12650
C1290       C  0.25616009  0.31079790  0.26153485     0.01000
C1291       C  0.24923646  0.29960990  0.27819258    -0.11170
C1292       C  0.26081687  0.28350416  0.28619993     0.03500
C1293       C  0.27933799  0.27863457  0.27658118    -0.10590
H1294       H  0.27889669  0.31320559  0.23824285     0.09090
H1295       H  0.23487989  0.30384062  0.28496109     0.06620
H1296       H  0.28924584  0.26720728  0.28288938     0.06470
C1297       C  0.85523939  0.27437634  0.75075944    -0.11890
C1298       C  0.85266213  0.28303799  0.77000900     0.05110
C1299       C  0.83324930  0.28271655  0.77920983    -0.07180
C1300       C  0.81690815  0.27395103  0.76875467    -0.07920
C1301       C  0.81938248  0.26583615  0.74927561    -0.02480
C1302       C  0.83886139  0.26572826  0.74021068     0.04340
N1303       N  0.84238672  0.25662361  0.72065366     0.66850
H1304       H  0.87021530  0.27428311  0.74395587     0.15750
H1305       H  0.80198079  0.27391437  0.77567760     0.15460
N1306       N  0.82988716  0.29046240  0.79929198     0.74550
O1307       O  0.85696073  0.26261413  0.70975063    -0.38900
O1308       O  0.83238459  0.24125060  0.71507305    -0.38840
O1309       O  0.83522908  0.30828402  0.80383830    -0.39550
O1310       O  0.81859897  0.28082494  0.81139079    -0.39610
C1311       C  0.15577357  0.28164581  0.74125036    -0.11890
C1312       C  0.15758227  0.27684310  0.76183839     0.05110
C1313       C  0.17587163  0.28139470  0.77213186    -0.07180
C1314       C  0.19187659  0.29048150  0.76133546    -0.07920
C1315       C  0.19013100  0.29529149  0.74069523    -0.02480
C1316       C  0.17168774  0.29099154  0.73055801     0.04340
N1317       N  0.16846027  0.29678411  0.70981771     0.66850
H1318       H  0.14157331  0.27856395  0.73356926     0.15750
H1319       H  0.20599427  0.29369553  0.76910229     0.15460
N1320       N  0.17834341  0.27772651  0.79350096     0.74550
O1321       O  0.15731710  0.28606306  0.69851658    -0.38900
O1322       O  0.17450414  0.31382566  0.70348699    -0.38840
O1323       O  0.17037958  0.26246062  0.80185296    -0.39550
O1324       O  0.19003407  0.28885911  0.80382006    -0.39610
C1325       C  0.99877927  0.04042689  0.94113883    -0.11890
C1326       C  0.99705268  0.01926522  0.94312030     0.05110
C1327       C  0.00552411  0.00671972  0.92784500    -0.07180
C1328       C  0.01575853  0.01570625  0.91142394    -0.07920
C1329       C  0.01706865  0.03692801  0.90922893    -0.02480
C1330       C  0.00809783  0.04935995  0.92429490     0.04340
N1331       N  0.00719459  0.07100192  0.92236859     0.66850
H1332       H  0.99243747  0.05026489  0.95268180     0.15750
H1333       H  0.02241142  0.00591068  0.90004304     0.15460
N1334       N  0.00325695  0.98500767  0.92823181     0.74550
O1335       O  0.99820369  0.07878603  0.90741851    -0.38900
O1336       O  0.01195719  0.08214576  0.93719105    -0.38840
O1337       O  0.98641251  0.97712085  0.93287176    -0.39550
O1338       O  0.01729349  0.97374607  0.92161945    -0.39610
C1339       C  0.98179722  0.04396439  0.59113670    -0.11890
C1340       C  0.99127784  0.04254703  0.57216296     0.05110
C1341       C  0.00986569  0.03194258  0.57029891    -0.07180
C1342       C  0.01853494  0.02323683  0.58765008    -0.07920
C1343       C  0.00928439  0.02506321  0.60671243    -0.02480
C1344       C  0.99042713  0.03516909  0.60844681     0.04340
N1345       N  0.97936865  0.03572711  0.62726449     0.66850
H1346       H  0.96725603  0.05156145  0.59231964     0.15750
H1347       H  0.03293520  0.01539374  0.58637374     0.15460
N1348       N  0.01993165  0.02943673  0.55108057     0.74550
O1349       O  0.96755816  0.05033164  0.63108818    -0.38900
O1350       O  0.97912610  0.02042587  0.63874849    -0.38840
O1351       O  0.02078660  0.04385418  0.53856126    -0.39550
O1352       O  0.02999884  0.01352069  0.54751065    -0.39610
C1353       C  0.99458380  0.51441618  0.59521708    -0.11890
C1354       C  0.99365907  0.53553819  0.59813236     0.05110
C1355       C  0.00304619  0.54835047  0.58367487    -0.07180
C1356       C  0.01207308  0.53983397  0.56642224    -0.07920
C1357       C  0.01337240  0.51871497  0.56367212    -0.02480
C1358       C  0.00474604  0.50583234  0.57855522     0.04340
N1359       N  0.00684399  0.48413750  0.57756776     0.66850
H1360       H  0.98770680  0.50438877  0.60623992     0.15750
H1361       H  0.01864548  0.54992273  0.55525283     0.15460
N1362       N  0.00480696  0.56985125  0.58675562     0.74550
O1363       O  0.02384551  0.47626128  0.57353538    -0.38900
O1364       O  0.99239495  0.47282058  0.58310139    -0.38840
O1365       O  0.01259366  0.57655964  0.60288872    -0.39550
O1366       O  0.00207337  0.58185740  0.57213656    -0.39610
C1367       C  0.18473690  0.78987337  0.76652965    -0.11890
C1368       C  0.18967967  0.76920526  0.76440313     0.05110
C1369       C  0.17661092  0.75664831  0.75274798    -0.07180
C1370       C  0.15947746  0.76515151  0.74337785    -0.07920
C1371       C  0.15435550  0.78567173  0.74601924    -0.02480
C1372       C  0.16698372  0.79802593  0.75820605     0.04340
N1373       N  0.16141714  0.81842770  0.76348020     0.66850
H1374       H  0.19448144  0.79979215  0.77528099     0.15750
H1375       H  0.14982300  0.75547192  0.73425595     0.15460
N1376       N  0.17987029  0.73517145  0.75089544     0.74550
O1377       O  0.14412914  0.82195101  0.77097801    -0.38900
O1378       O  0.17473212  0.83221438  0.76386861    -0.38840
O1379       O  0.18284282  0.72453447  0.76648513    -0.39550
O1380       O  0.17717170  0.72644228  0.73407779    -0.39610
C1381       C  0.83343544  0.75897733  0.74688577    -0.11890
C1382       C  0.84755924  0.77292169  0.73894307     0.05110
C1383       C  0.84299214  0.79389695  0.73996299    -0.07180
C1384       C  0.82505880  0.80029125  0.74949000    -0.07920
C1385       C  0.81094965  0.78636003  0.75734201    -0.02480
C1386       C  0.81509248  0.76538311  0.75566004     0.04340
N1387       N  0.80067190  0.75040054  0.76219762     0.66850
H1388       H  0.83653644  0.74286361  0.74615815     0.15750
H1389       H  0.82206530  0.81639777  0.75066558     0.15460
N1390       N  0.85579587  0.80890684  0.73074851     0.74550
O1391       O  0.78220064  0.75203227  0.75741935    -0.38900
O1392       O  0.80663709  0.73454615  0.77108863    -0.38840
O1393       O  0.86061481  0.80726233  0.71231224    -0.39550
O1394       O  0.85938450  0.82537214  0.73988726    -0.39610
C1395       C  0.98964548  0.54371689  0.93688317    -0.11890
C1396       C  0.01101613  0.54420851  0.93739175     0.05110
C1397       C  0.02193389  0.53690376  0.92031236    -0.07180
C1398       C  0.01134141  0.52906037  0.90367306    -0.07920
C1399       C  0.99013343  0.52907368  0.90309764    -0.02480
C1400       C  0.97899893  0.53669393  0.91977982     0.04340
N1401       N  0.95711090  0.53766783  0.91961144     0.66850
H1402       H  0.98113036  0.54906909  0.94985912     0.15750
H1403       H  0.01976966  0.52334419  0.89075586     0.15460
N1404       N  0.04367018  0.53804747  0.91911486     0.74550
O1405       O  0.94734725  0.53874574  0.93604611    -0.38900
O1406       O  0.94752911  0.53959373  0.90319559    -0.38840
O1407       O  0.05366759  0.52326341  0.91210814    -0.39550
O1408       O  0.05264745  0.55464482  0.92249679    -0.39610
C1409       C  0.26849477  0.78843331  0.19172295    -0.11890
C1410       C  0.26823819  0.76701290  0.19160615     0.05110
C1411       C  0.25934827  0.75701396  0.17480537    -0.07180
C1412       C  0.25092465  0.76838376  0.15901389    -0.07920
C1413       C  0.25200079  0.78958015  0.15887283    -0.02480
C1414       C  0.26109683  0.79989368  0.17533085     0.04340
N1415       N  0.26323464  0.82172053  0.17565553     0.66850
H1416       H  0.27489994  0.79636916  0.20457416     0.15750
H1417       H  0.24419986  0.76053478  0.14623103     0.15460
N1418       N  0.26017963  0.73543068  0.17260647     0.74550
O1419       O  0.26618880  0.83090401  0.19218955    -0.38900
O1420       O  0.26432120  0.83172692  0.15941133    -0.38840
O1421       O  0.24447780  0.72575382  0.16740557    -0.39550
O1422       O  0.27723751  0.72679943  0.17163358    -0.39610
C1423       C  0.24541253  0.80352235  0.84217885    -0.11890
C1424       C  0.25427798  0.79197353  0.85755323     0.05110
C1425       C  0.25553172  0.77064940  0.85544109    -0.07180
C1426       C  0.24755607  0.76144141  0.83795449    -0.07920
C1427       C  0.23904175  0.77297196  0.82219908    -0.02480
C1428       C  0.23831497  0.79442699  0.82431023     0.04340
N1429       N  0.23174991  0.80733306  0.80807132     0.66850
H1430       H  0.24505410  0.81991548  0.84362528     0.15750
H1431       H  0.24793635  0.74505672  0.83671594     0.15460
N1432       N  0.26501658  0.75814289  0.87060223     0.74550
O1433       O  0.22129983  0.82295131  0.81185066    -0.38900
O1434       O  0.23874574  0.80482479  0.79043467    -0.38840
O1435       O  0.26421672  0.76289863  0.88910661    -0.39550
O1436       O  0.27318801  0.74152201  0.86564333    -0.39610
C1437       C  0.99229260  0.93583084  0.01333531    -0.11890
C1438       C  0.01255138  0.93601645  0.02012554     0.05110
C1439       C  0.02407563  0.95400335  0.01703735    -0.07180
C1440       C  0.01492219  0.97117427  0.00844719    -0.07920
C1441       C  0.99476252  0.97079622  0.00180447    -0.02480
C1442       C  0.98341945  0.95268621  0.00390331     0.04340
N1443       N  0.96349439  0.95046032  0.99533267     0.66850
H1444       H  0.98302232  0.92242909  0.01512930     0.15750
H1445       H  0.02394125  0.98474677  0.00613734     0.15460
N1446       N  0.04537944  0.95489351  0.02102433     0.74550
O1447       O  0.95908573  0.93450692  0.98566553    -0.38900
O1448       O  0.94941084  0.96246274  0.00022754    -0.38840
O1449       O  0.05739088  0.94452116  0.01027753    -0.39550
O1450       O  0.05239743  0.96902330  0.03189282    -0.39610
C1451       C  0.99598272  0.62977039  0.99161491    -0.11890
C1452       C  0.00084680  0.63289104  0.01199105     0.05110
C1453       C  0.01465688  0.61970894  0.02158572    -0.07180
C1454       C  0.02235587  0.60303723  0.01075790    -0.07920
C1455       C  0.01768932  0.59971845  0.99015208    -0.02480
C1456       C  0.00484343  0.61399497  0.98033965     0.04340
N1457       N  0.00145828  0.61357939  0.95887119     0.66850
H1458       H  0.98598192  0.64042410  0.98411180     0.15750
H1459       H  0.03160260  0.59225635  0.01891957     0.15460
N1460       N  0.02076715  0.62265626  0.04230761     0.74550
O1461       O  0.98414033  0.61771069  0.95183410    -0.38900
O1462       O  0.01622503  0.61147906  0.94684325    -0.38840
O1463       O  0.00828030  0.62889852  0.05542746    -0.39550
O1464       O  0.03837411  0.61759516  0.04787877    -0.39610
C1465       C  0.51406702  0.60435622  0.98845026    -0.11890
C1466       C  0.50784469  0.62349277  0.99553548     0.05110
C1467       C  0.49408673  0.62458953  0.01197045    -0.07180
C1468       C  0.48697365  0.60658647  0.02082777    -0.07920
C1469       C  0.49345584  0.58752810  0.01393667    -0.02480
C1470       C  0.50705684  0.58626054  0.99733933     0.04340
N1471       N  0.51376231  0.56704349  0.98914471     0.66850
H1472       H  0.52450618  0.60353514  0.97578800     0.15750
H1473       H  0.47662356  0.60743993  0.03357395     0.15460
N1474       N  0.48794346  0.64368492  0.02053022     0.74550
O1475       O  0.52054677  0.56603783  0.97127736    -0.38900
O1476       O  0.51405299  0.55121955  0.99987335    -0.38840
O1477       O  0.46991082  0.64611197  0.02656160    -0.39550
O1478       O  0.50107419  0.65696030  0.02485794    -0.39610
C1479       C  0.73741638  0.77667074  0.15556465    -0.11890
C1480       C  0.75820020  0.77159699  0.15526709     0.05110
C1481       C  0.77006840  0.77679526  0.17239009    -0.07180
C1482       C  0.76082235  0.78554508  0.18936979    -0.07920
C1483       C  0.74017918  0.79065201  0.18960099    -0.02480
C1484       C  0.72823371  0.78670784  0.17211728     0.04340
N1485       N  0.70739755  0.79345162  0.17012317     0.66850
H1486       H  0.72809324  0.77291759  0.14265055     0.15750
H1487       H  0.77013053  0.78909727  0.20243097     0.15460
N1488       N  0.79168667  0.77465617  0.17254978     0.74550
O1489       O  0.69898619  0.79349327  0.15295528    -0.38900
O1490       O  0.69746076  0.80024608  0.18498752    -0.38840
O1491       O  0.80227344  0.78472512  0.16017649    -0.39550
O1492       O  0.80026938  0.76624463  0.18740370    -0.39610
C1493       C  0.76411520  0.77959978  0.85345035    -0.11890
C1494       C  0.74801525  0.76574858  0.85105354     0.05110
C1495       C  0.74030427  0.76214783  0.83138157    -0.07180
C1496       C  0.74848226  0.77275598  0.81490375    -0.07920
C1497       C  0.76456113  0.78647627  0.81731446    -0.02480
C1498       C  0.77264471  0.79000921  0.83685211     0.04340
N1499       N  0.78909516  0.80410262  0.84028767     0.66850
H1500       H  0.77000887  0.78246700  0.86847630     0.15750
H1501       H  0.74258141  0.76986084  0.79985236     0.15460
N1502       N  0.72491977  0.74716515  0.82761606     0.74550
O1503       O  0.79220649  0.81117035  0.85779467    -0.38900
O1504       O  0.80129679  0.80874984  0.82629126    -0.38840
O1505       O  0.71096976  0.75073572  0.81503723    -0.39550
O1506       O  0.72695822  0.72938132  0.83440429    -0.39610
C1507       C  0.52934976  0.94196331  0.01700028    -0.11890
C1508       C  0.52012662  0.96094858  0.01463638     0.05110
C1509       C  0.50215337  0.96259860  0.00309177    -0.07180
C1510       C  0.49385127  0.94501895  0.99430297    -0.07920
C1511       C  0.50292403  0.92585964  0.99675542    -0.02480
C1512       C  0.52078236  0.92434460  0.00860168     0.04340
N1513       N  0.52965534  0.90507193  0.01347253     0.66850
H1514       H  0.54282789  0.94072454  0.02630532     0.15750
H1515       H  0.48038774  0.94643252  0.98503779     0.15460
N1516       N  0.49228656  0.98186655  0.99991948     0.74550
O1517       O  0.54871645  0.90318861  0.01398965    -0.38900
O1518       O  0.51869778  0.89105455  0.02058594    -0.38840
O1519       O  0.50250053  0.99804394  0.99869391    -0.39550
O1520       O  0.47344409  0.98256451  0.99652888    -0.39610
C1521       C  0.92812171  0.01463951  0.00693124    -0.11890
C1522       C  0.94276318  0.02608344  0.99636960     0.05110
C1523       C  0.93946004  0.04724697  0.99395337    -0.07180
C1524       C  0.92169069  0.05608574  0.00173630    -0.07920
C1525       C  0.90758195  0.04466458  0.01275892    -0.02480
C1526       C  0.91086817  0.02366962  0.01561025     0.04340
N1527       N  0.89696398  0.01124564  0.02705386     0.66850
H1528       H  0.93018317  0.99844431  0.00863932     0.15750
H1529       H  0.91918687  0.07222879  0.99979061     0.15460
N1530       N  0.95423194  0.06020349  0.98452967     0.74550
O1531       O  0.89519815  0.99258122  0.02302835    -0.38900
O1532       O  0.88835486  0.01811999  0.04270794    -0.38840
O1533       O  0.94858477  0.07407660  0.97264201    -0.39550
O1534       O  0.97257503  0.05949855  0.98996729    -0.39610
C1535       C  0.60736240  0.02699769  0.01942181    -0.11890
C1536       C  0.60536772  0.03580938  0.00010436     0.05110
C1537       C  0.58644114  0.03389805  0.99010545    -0.07180
C1538       C  0.57023174  0.02405307  0.99965631    -0.07920
C1539       C  0.57218321  0.01579028  0.01906481    -0.02480
C1540       C  0.59114860  0.01698677  0.02904536     0.04340
N1541       N  0.59472979  0.00737055  0.04828796     0.66850
H1542       H  0.62176025  0.02765739  0.02721237     0.15750
H1543       H  0.55584180  0.02287988  0.99178921     0.15460
N1544       N  0.58314132  0.04178632  0.97027794     0.74550
O1545       O  0.61193155  0.99987582  0.05211600    -0.38900
O1546       O  0.58179466  0.00839485  0.06234300    -0.38840
O1547       O  0.58245392  0.02973306  0.95541409    -0.39550
O1548       O  0.57674115  0.05971041  0.96821974    -0.39610
C1549       C  0.77680092  0.86756115  0.24526389    -0.11890
C1550       C  0.76585064  0.88120335  0.25731601     0.05110
C1551       C  0.74528251  0.87717173  0.26179882    -0.07180
C1552       C  0.73605828  0.85979081  0.25359638    -0.07920
C1553       C  0.74704056  0.84561973  0.24191063    -0.02480
C1554       C  0.76795542  0.84949419  0.23815475     0.04340
N1555       N  0.78083415  0.83479880  0.22846802     0.66850
H1556       H  0.79276691  0.87037855  0.24244653     0.15750
H1557       H  0.72000646  0.85755483  0.25624661     0.15460
N1558       N  0.73350228  0.89044778  0.27456834     0.74550
O1559       O  0.79423118  0.84050212  0.21602029    -0.38900
O1560       O  0.78078342  0.81658752  0.23439188    -0.38840
O1561       O  0.73596675  0.90944230  0.27392213    -0.39550
O1562       O  0.71955762  0.88328196  0.28558454    -0.39610
C1563       C  0.74210319  0.18644050  0.24728574    -0.11890
C1564       C  0.76180562  0.18255496  0.25407729     0.05110
C1565       C  0.76997458  0.19459979  0.26973959    -0.07180
C1566       C  0.75843330  0.21076817  0.27755911    -0.07920
C1567       C  0.73823853  0.21458632  0.27132102    -0.02480
C1568       C  0.72996180  0.20154836  0.25617392     0.04340
N1569       N  0.70904307  0.20230879  0.25034664     0.66850
H1570       H  0.73560614  0.17673824  0.23570712     0.15750
H1571       H  0.76583397  0.22071570  0.28827430     0.15460
N1572       N  0.79000210  0.19102324  0.27766861     0.74550
O1573       O  0.70428548  0.20163575  0.23184547    -0.38900
O1574       O  0.69531547  0.20072259  0.26359919    -0.38840
O1575       O  0.80433669  0.18562723  0.26615510    -0.39550
O1576       O  0.79377904  0.19469964  0.29605137    -0.39610
C1577       C  0.91490585  0.02835900  0.49197168    -0.11890
C1578       C  0.90059162  0.01908049  0.50477365     0.05110
C1579       C  0.90415302  0.01926233  0.52592739    -0.07180
C1580       C  0.92110593  0.02963972  0.53364132    -0.07920
C1581       C  0.93543786  0.03883578  0.52080614    -0.02480
C1582       C  0.93248649  0.03763526  0.49959320     0.04340
N1583       N  0.94747452  0.04493531  0.48552511     0.66850
H1584       H  0.91264359  0.02815000  0.47574804     0.15750
H1585       H  0.92330706  0.03017203  0.54988559     0.15460
N1586       N  0.89152503  0.00811360  0.53972235     0.74550
O1587       O  0.96599573  0.04077979  0.48809188    -0.38900
O1588       O  0.94203658  0.05333151  0.46924789    -0.38840
O1589       O  0.88772933  0.98962350  0.53635895    -0.39550
O1590       O  0.88717885  0.01554940  0.55681931    -0.39610
C1591       C  0.59557771  0.03848943  0.50660798    -0.11890
C1592       C  0.59443869  0.01772342  0.51105012     0.05110
C1593       C  0.57627158  0.00694413  0.50703211    -0.07180
C1594       C  0.55970531  0.01745393  0.49871471    -0.07920
C1595       C  0.56075026  0.03830457  0.49448652    -0.02480
C1596       C  0.57903617  0.04894636  0.49825998     0.04340
N1597       N  0.58134598  0.07005695  0.49311309     0.66850
H1598       H  0.60966431  0.04653935  0.50934569     0.15750
H1599       H  0.54566022  0.00938311  0.49585224     0.15460
N1600       N  0.57439932  0.98544764  0.51070446     0.74550
O1601       O  0.59301480  0.08127673  0.50335632    -0.38900
O1602       O  0.57369299  0.07698610  0.47703888    -0.38840
O1603       O  0.58326193  0.97719632  0.52546426    -0.39550
O1604       O  0.56232879  0.97489698  0.50021823    -0.39610
C1605       C  0.76338782  0.18017867  0.75469317    -0.11890
C1606       C  0.74249713  0.18132088  0.75853530     0.05110
C1607       C  0.73178669  0.19932553  0.75378329    -0.07180
C1608       C  0.74254330  0.21580317  0.74552300    -0.07920
C1609       C  0.76355238  0.21482644  0.74203566    -0.02480
C1610       C  0.77407291  0.19661445  0.74636338     0.04340
N1611       N  0.79533995  0.19430990  0.74188890     0.66850
H1612       H  0.77138876  0.16619649  0.75797821     0.15750
H1613       H  0.73455003  0.22979753  0.74229488     0.15460
N1614       N  0.71017357  0.20118325  0.75682596     0.74550
O1615       O  0.80627114  0.18297313  0.75273480    -0.38900
O1616       O  0.80276304  0.20168363  0.72587229    -0.38840
O1617       O  0.70134717  0.19201878  0.77110487    -0.39550
O1618       O  0.70000792  0.21336300  0.74614407    -0.39610
C1619       C  0.75456042  0.86912108  0.74028453    -0.11890
C1620       C  0.73616991  0.87521029  0.74890987     0.05110
C1621       C  0.72815097  0.86411398  0.76531315    -0.07180
C1622       C  0.73834346  0.84662307  0.77196616    -0.07920
C1623       C  0.75728237  0.84055078  0.76383788    -0.02480
C1624       C  0.76564511  0.85274641  0.74803906     0.04340
N1625       N  0.78586566  0.84994939  0.74053414     0.66850
H1626       H  0.76110449  0.87810966  0.72813190     0.15750
H1627       H  0.73082969  0.83756484  0.78342007     0.15460
N1628       N  0.70960702  0.87005990  0.77521183     0.74550
O1629       O  0.78913319  0.84970292  0.72168794    -0.38900
O1630       O  0.80070351  0.85082767  0.75255597    -0.38840
O1631       O  0.69475981  0.87662011  0.76511106    -0.39550
O1632       O  0.70751095  0.86738400  0.79402759    -0.39610
C1633       C  0.25276114  0.24334529  0.32760735    -0.11890
C1634       C  0.24148999  0.25429579  0.34185407     0.05110
C1635       C  0.23614386  0.27461876  0.33780936    -0.07180
C1636       C  0.24301772  0.28371913  0.31987689    -0.07920
C1637       C  0.25396936  0.27275023  0.30509818    -0.02480
C1638       C  0.25834528  0.25198996  0.30901365     0.04340
N1639       N  0.26685044  0.23895351  0.29383473     0.66850
H1640       H  0.25613372  0.22749666  0.33044530     0.15750
H1641       H  0.23994898  0.29970027  0.31776690     0.15460
N1642       N  0.22377177  0.28626122  0.35157316     0.74550
O1643       O  0.28064518  0.22650834  0.29845741    -0.38900
O1644       O  0.25820604  0.23736965  0.27688174    -0.38840
O1645       O  0.22563343  0.28429755  0.37048332    -0.39550
O1646       O  0.21172501  0.29951460  0.34482258    -0.39610
C1647       C  0.26694073  0.29161566  0.65826135    -0.11890
C1648       C  0.25367612  0.28202241  0.64467137     0.05110
C1649       C  0.23283692  0.28073456  0.64986983    -0.07180
C1650       C  0.22590645  0.28961528  0.66803463    -0.07920
C1651       C  0.23941007  0.29847011  0.68203680    -0.02480
C1652       C  0.26029869  0.29903937  0.67696490     0.04340
N1653       N  0.27533979  0.30540173  0.69121528     0.66850
H1654       H  0.28295361  0.29273261  0.65477164     0.15750
H1655       H  0.20985504  0.28894838  0.67149596     0.15460
N1656       N  0.21875240  0.26933609  0.63780678     0.74550
O1657       O  0.27792333  0.29517429  0.70712305    -0.38900
O1658       O  0.28861239  0.31822751  0.68604486    -0.38840
O1659       O  0.22270258  0.25115351  0.63318534    -0.39550
O1660       O  0.20098986  0.27595636  0.63508746    -0.39610
C1661       C  0.51396428  0.43955939  0.50300622    -0.11890
C1662       C  0.51223756  0.43797213  0.52405192     0.05110
C1663       C  0.50271664  0.45366165  0.53516210    -0.07180
C1664       C  0.49583178  0.47095180  0.52478336    -0.07920
C1665       C  0.49739887  0.47266399  0.50356545    -0.02480
C1666       C  0.50615096  0.45632220  0.49254518     0.04340
N1667       N  0.50635465  0.45588378  0.47079793     0.66850
H1668       H  0.52078340  0.42719806  0.49454510     0.15750
H1669       H  0.48952969  0.48336845  0.53350768     0.15460
N1670       N  0.49978612  0.45240832  0.55677330     0.74550
O1671       O  0.52154631  0.44884566  0.46145975    -0.38900
O1672       O  0.49045411  0.46000670  0.46099749    -0.38840
O1673       O  0.51205657  0.44276492  0.56780896    -0.39550
O1674       O  0.48531268  0.46184170  0.56509286    -0.39610
C1675       C  0.48219563  0.11796352  0.50828910    -0.11890
C1676       C  0.49590690  0.13115576  0.51793524     0.05110
C1677       C  0.51664821  0.12560234  0.51866524    -0.07180
C1678       C  0.52323584  0.10807689  0.50843122    -0.07920
C1679       C  0.50949727  0.09473690  0.49892315    -0.02480
C1680       C  0.48853276  0.09959602  0.49953034     0.04340
N1681       N  0.47332284  0.08573828  0.49233135     0.66850
H1682       H  0.46620768  0.12166692  0.50789969     0.15750
H1683       H  0.53930052  0.10465648  0.50836640     0.15460
N1684       N  0.53100217  0.13666828  0.53074973     0.74550
O1685       O  0.47367499  0.06739080  0.49779377    -0.38900
O1686       O  0.45805117  0.09232381  0.48287987    -0.38840
O1687       O  0.52687585  0.14073344  0.54898721    -0.39550
O1688       O  0.54897083  0.13908111  0.52452550    -0.39610
C1689       C  0.01992055  0.43766525  0.48676619    -0.11890
C1690       C  0.99878894  0.43508458  0.48607601     0.05110
C1691       C  0.98625844  0.45016116  0.49494051    -0.07180
C1692       C  0.99512092  0.46758236  0.50340907    -0.07920
C1693       C  0.01630291  0.46973407  0.50494580    -0.02480
C1694       C  0.02877239  0.45431566  0.49660024     0.04340
N1695       N  0.05032625  0.45436984  0.49932453     0.66850
H1696       H  0.02979058  0.42623494  0.48027340     0.15750
H1697       H  0.98525117  0.47915550  0.50964233     0.15460
N1698       N  0.96475100  0.44742012  0.49704777     0.74550
O1699       O  0.05753241  0.45418270  0.51700204    -0.38900
O1700       O  0.06188751  0.45077867  0.48448291    -0.38840
O1701       O  0.95796687  0.43168498  0.50560620    -0.39550
O1702       O  0.95289890  0.46213898  0.49395814    -0.39610
C1703       C  0.98831248  0.09622952  0.49922162    -0.11890
C1704       C  0.98440778  0.09709260  0.52012528     0.05110
C1705       C  0.98927996  0.11495510  0.53099118    -0.07180
C1706       C  0.99796226  0.13141966  0.52067176    -0.07920
C1707       C  0.00187524  0.13047259  0.49983203    -0.02480
C1708       C  0.99696749  0.11269471  0.48885343     0.04340
N1709       N  0.00046200  0.11108402  0.46734904     0.66850
H1710       H  0.98471097  0.08247958  0.49093780     0.15750
H1711       H  0.00173431  0.14511804  0.52897394     0.15460
N1712       N  0.98532249  0.11674952  0.55232127     0.74550
O1713       O  0.00310110  0.09389489  0.45926734    -0.38900
O1714       O  0.99897952  0.12645259  0.45606036    -0.38840
O1715       O  0.99764959  0.12610607  0.56359816    -0.39550
O1716       O  0.96875871  0.11052114  0.55968097    -0.39610
C1717       C  0.73318637  0.29155915  0.35448276    -0.11890
C1718       C  0.75405608  0.28904058  0.35779896     0.05110
C1719       C  0.76517573  0.27626661  0.34459000    -0.07180
C1720       C  0.75537436  0.26724554  0.32801320    -0.07920
C1721       C  0.73434381  0.26935953  0.32480628    -0.02480
C1722       C  0.72312889  0.28161243  0.33858615     0.04340
N1723       N  0.70151282  0.28377311  0.33723675     0.66850
H1724       H  0.72444066  0.30115880  0.36456926     0.15750
H1725       H  0.76439990  0.25821646  0.31767131     0.15460
N1726       N  0.78606284  0.27129488  0.34830589     0.74550
O1727       O  0.69029490  0.26826176  0.33628007    -0.38900
O1728       O  0.69348697  0.30109754  0.33895942    -0.38840
O1729       O  0.79142286  0.26516793  0.36558697    -0.39550
O1730       O  0.79832116  0.26963791  0.33368117    -0.39610
C1731       C  0.76128922  0.27375938  0.65672767    -0.11890
C1732       C  0.75267965  0.29304400  0.65950648     0.05110
C1733       C  0.75302902  0.30205533  0.67895605    -0.07180
C1734       C  0.76179397  0.29143877  0.69511608    -0.07920
C1735       C  0.76988542  0.27193306  0.69245957    -0.02480
C1736       C  0.76991610  0.26300809  0.67294830     0.04340
N1737       N  0.77894735  0.24342285  0.66922264     0.66850
H1738       H  0.76136863  0.26709477  0.64171440     0.15750
H1739       H  0.76184481  0.29827117  0.71006291     0.15460
N1740       N  0.74530319  0.32213245  0.68252902     0.74550
O1741       O  0.77300081  0.23268556  0.65452711    -0.38900
O1742       O  0.79420237  0.23764924  0.67921108    -0.38840
O1743       O  0.72717851  0.32639201  0.67814437    -0.39550
O1744       O  0.75529611  0.33438102  0.69334621    -0.39610
C1745       C  0.47755788  0.02663123  0.42602965    -0.11890
C1746       C  0.48725732  0.02830759  0.40718404     0.05110
C1747       C  0.50661467  0.03740203  0.40612046    -0.07180
C1748       C  0.51586742  0.04465652  0.42379175    -0.07920
C1749       C  0.50606925  0.04325407  0.44258770    -0.02480
C1750       C  0.48670825  0.03397090  0.44382394     0.04340
N1751       N  0.47644063  0.03132119  0.46291398     0.66850
H1752       H  0.46287474  0.01926113  0.42689716     0.15750
H1753       H  0.53079086  0.05152252  0.42283801     0.15460
N1754       N  0.51755462  0.03838086  0.38742977     0.74550
O1755       O  0.45729440  0.03075417  0.46358809    -0.38900
O1756       O  0.48633583  0.02731369  0.47875887    -0.38840
O1757       O  0.51381256  0.05246126  0.37507121    -0.39550
O1758       O  0.53348893  0.02798324  0.38523268    -0.39610
C1759       C  0.50300760  0.02901050  0.06730083    -0.11890
C1760       C  0.51608902  0.01249467  0.06992752     0.05110
C1761       C  0.51852292  0.00390873  0.08940071    -0.07180
C1762       C  0.50800793  0.01254978  0.10583138    -0.07920
C1763       C  0.49516430  0.02938021  0.10333988    -0.02480
C1764       C  0.49216428  0.03729494  0.08363585     0.04340
N1765       N  0.47746476  0.05289889  0.07970447     0.66850
H1766       H  0.50072600  0.03506598  0.05222344     0.15750
H1767       H  0.51045829  0.00649586  0.12086155     0.15460
N1768       N  0.53167502  0.98676453  0.09291435     0.74550
O1769       O  0.48091818  0.06613622  0.06633170    -0.38900
O1770       O  0.45988771  0.05166411  0.08725341    -0.38840
O1771       O  0.54715225  0.98375709  0.08202871    -0.39550
O1772       O  0.52871807  0.97536767  0.10798658    -0.39610
C1773       C  0.64625630  0.26536810  0.26225547    -0.11890
C1774       C  0.64635809  0.28503057  0.25401399     0.05110
C1775       C  0.66488550  0.29595694  0.25369795    -0.07180
C1776       C  0.68252861  0.28714067  0.26148860    -0.07920
C1777       C  0.68241518  0.26753409  0.26958208    -0.02480
C1778       C  0.66388639  0.25647771  0.27040912     0.04340
N1779       N  0.66226731  0.23686147  0.28013986     0.66850
H1780       H  0.63205563  0.25715394  0.26314485     0.15750
H1781       H  0.69660197  0.29565836  0.26104933     0.15460
N1782       N  0.66636675  0.31582888  0.24513289     0.74550
O1783       O  0.64664805  0.22604448  0.27752732    -0.38900
O1784       O  0.67511874  0.23117468  0.29308337    -0.38840
O1785       O  0.67345545  0.33025312  0.25556511    -0.39550
O1786       O  0.66335639  0.31835412  0.22644450    -0.39610
C1787       C  0.31893848  0.29637612  0.24284769    -0.11890
C1788       C  0.30399530  0.28202528  0.24772975     0.05110
C1789       C  0.30684238  0.26161262  0.24183971    -0.07180
C1790       C  0.32507847  0.25582641  0.23253251    -0.07920
C1791       C  0.34022899  0.27008023  0.22762078    -0.02480
C1792       C  0.33664908  0.29081046  0.23236477     0.04340
N1793       N  0.35009190  0.30659228  0.22580351     0.66850
H1794       H  0.31659235  0.31217790  0.24680298     0.15750
H1795       H  0.32708091  0.23998876  0.22877687     0.15460
N1796       N  0.29095602  0.24683171  0.24409144     0.74550
O1797       O  0.35364387  0.30883176  0.20715316    -0.38900
O1798       O  0.35539436  0.32035911  0.23802538    -0.38840
O1799       O  0.27303059  0.25124192  0.23900949    -0.39550
O1800       O  0.29526774  0.22857649  0.24797102    -0.39610
C1801       C  0.33902579  0.77410738  0.27565697    -0.11890
C1802       C  0.35641189  0.77954479  0.26470099     0.05110
C1803       C  0.35678453  0.77685855  0.24342687    -0.07180
C1804       C  0.33970020  0.76846988  0.23377708    -0.07920
C1805       C  0.32235968  0.76277725  0.24475809    -0.02480
C1806       C  0.32186894  0.76600779  0.26597673     0.04340
N1807       N  0.30389290  0.76202418  0.27775660     0.66850
H1808       H  0.33861886  0.77677971  0.29185458     0.15750
H1809       H  0.34003764  0.76601785  0.21755390     0.15460
N1810       N  0.37399172  0.78286478  0.23132640     0.74550
O1811       O  0.30540806  0.75643638  0.29596458    -0.38900
O1812       O  0.28658485  0.76649060  0.27090830    -0.38840
O1813       O  0.39183282  0.78133589  0.23806219    -0.39550
O1814       O  0.37150808  0.78815276  0.21313544    -0.39610
C1815       C  0.67484376  0.78327119  0.28055399    -0.11890
C1816       C  0.65736696  0.77905690  0.26922567     0.05110
C1817       C  0.65807120  0.78045847  0.24788652    -0.07180
C1818       C  0.67616755  0.78669879  0.23854541    -0.07920
C1819       C  0.69367776  0.79126501  0.24980901    -0.02480
C1820       C  0.69310424  0.78909275  0.27115547     0.04340
N1821       N  0.71095186  0.79184030  0.28339303     0.66850
H1822       H  0.67440766  0.78134162  0.29684580     0.15750
H1823       H  0.67640816  0.78851761  0.22225014     0.15460
N1824       N  0.64092360  0.77520817  0.23540158     0.74550
O1825       O  0.70935752  0.79814557  0.30139074    -0.38900
O1826       O  0.72804698  0.78586348  0.27710794    -0.38840
O1827       O  0.62304192  0.77907444  0.24107872    -0.39550
O1828       O  0.64370937  0.76824309  0.21779061    -0.39610
C1829       C  0.52770386  0.52697861  0.08965256    -0.11890
C1830       C  0.51567214  0.52439009  0.10698729     0.05110
C1831       C  0.49447640  0.52759043  0.10581268    -0.07180
C1832       C  0.48600737  0.53373246  0.08731376    -0.07920
C1833       C  0.49802789  0.53658373  0.06996832    -0.02480
C1834       C  0.51915241  0.53278705  0.07105785     0.04340
N1835       N  0.53190438  0.53374659  0.05337350     0.66850
H1836       H  0.54381435  0.52377785  0.09048694     0.15750
H1837       H  0.46985715  0.53670229  0.08651930     0.15460
N1838       N  0.48124945  0.52427088  0.12289830     0.74550
O1839       O  0.55037352  0.53859090  0.05502474    -0.38900
O1840       O  0.52553458  0.52721520  0.03656476    -0.38840
O1841       O  0.48699655  0.52832342  0.14066320    -0.39550
O1842       O  0.46306235  0.51890774  0.12010834    -0.39610
C1843       C  0.53269201  0.53563601  0.42920770    -0.11890
C1844       C  0.52122497  0.53714986  0.41140574     0.05110
C1845       C  0.50021859  0.53277092  0.41196604    -0.07180
C1846       C  0.49139990  0.52646577  0.43025114    -0.07920
C1847       C  0.50287184  0.52464993  0.44804896    -0.02480
C1848       C  0.52378002  0.52966042  0.44761609     0.04340
N1849       N  0.53591156  0.52970156  0.46572519     0.66850
H1850       H  0.54861063  0.53978025  0.42886037     0.15750
H1851       H  0.47540235  0.52265080  0.43052050     0.15460
N1852       N  0.48740324  0.53546127  0.39455706     0.74550
O1853       O  0.55469048  0.52600931  0.46473102    -0.38900
O1854       O  0.52850277  0.53576492  0.48230937    -0.38840
O1855       O  0.49299641  0.52937344  0.37731351    -0.39550
O1856       O  0.46945162  0.54179272  0.39679071    -0.39610
C1857       C  0.27434434  0.36723879  0.74920352    -0.11890
C1858       C  0.26275589  0.38364464  0.75611210     0.05110
C1859       C  0.24131190  0.38267553  0.75519271    -0.07180
C1860       C  0.23212421  0.36551407  0.74640053    -0.07920
C1861       C  0.24374124  0.34916499  0.73914425    -0.02480
C1862       C  0.26509652  0.34977269  0.74130695     0.04340
N1863       N  0.27739281  0.33227019  0.73712649     0.66850
H1864       H  0.29070539  0.36768331  0.75086017     0.15750
H1865       H  0.21575470  0.36498338  0.74500403     0.15460
N1866       N  0.22863827  0.39853482  0.76340248     0.74550
O1867       O  0.29519828  0.33441465  0.73035437    -0.38900
O1868       O  0.27189607  0.31508426  0.74355780    -0.38840
O1869       O  0.23449686  0.41677915  0.76362131    -0.39550
O1870       O  0.21097982  0.39444740  0.76965163    -0.39610
C1871       C  0.27858250  0.69892047  0.76352319    -0.11890
C1872       C  0.26706797  0.68427073  0.75332540     0.05110
C1873       C  0.24635364  0.68797127  0.74938357    -0.07180
C1874       C  0.23750352  0.70595775  0.75657506    -0.07920
C1875       C  0.24888918  0.72085001  0.76687774    -0.02480
C1876       C  0.26998904  0.71743826  0.76975501     0.04340
N1877       N  0.28314545  0.73285099  0.77785006     0.66850
H1878       H  0.29467887  0.69634404  0.76568508     0.15750
H1879       H  0.22134034  0.70798588  0.75453848     0.15460
N1880       N  0.23402319  0.67371847  0.73828624     0.74550
O1881       O  0.29800707  0.72797775  0.78885907    -0.38900
O1882       O  0.28136915  0.75105688  0.77218260    -0.38840
O1883       O  0.23679425  0.65484047  0.74000880    -0.39550
O1884       O  0.21928813  0.67995018  0.72780123    -0.39610
C1885       C  0.10454549  0.52344734  0.50092941    -0.11890
C1886       C  0.10414750  0.54449952  0.49806729     0.05110
C1887       C  0.08642151  0.55562247  0.50297997    -0.07180
C1888       C  0.06942257  0.54508319  0.51045283    -0.07920
C1889       C  0.06974089  0.52393916  0.51312988    -0.02480
C1890       C  0.08768214  0.51306647  0.50868938     0.04340
N1891       N  0.08942158  0.49180456  0.51307177     0.66850
H1892       H  0.11833647  0.51511337  0.49759861     0.15750
H1893       H  0.05563328  0.55337106  0.51387708     0.15460
N1894       N  0.08536337  0.57739211  0.50080155     0.74550
O1895       O  0.09968025  0.48039369  0.50158490    -0.38900
O1896       O  0.08347639  0.48508588  0.52995618    -0.38840
O1897       O  0.09567049  0.58649320  0.48749256    -0.39550
O1898       O  0.07298834  0.58753677  0.51136388    -0.39610
C1899       C  0.42519801  0.55887856  0.50513965    -0.11890
C1900       C  0.40919492  0.54679205  0.51214204     0.05110
C1901       C  0.41140698  0.52546261  0.51260226    -0.07180
C1902       C  0.42943661  0.51678587  0.50523733    -0.07920
C1903       C  0.44569019  0.52880016  0.49829030    -0.02480
C1904       C  0.44361029  0.55025548  0.49874278     0.04340
N1905       N  0.46025279  0.56354149  0.49394510     0.66850
H1906       H  0.42367340  0.57526006  0.50558955     0.15750
H1907       H  0.43064112  0.50040269  0.50474939     0.15460
N1908       N  0.39591447  0.51240042  0.52087560     0.74550
O1909       O  0.45702238  0.58008458  0.48488324    -0.38900
O1910       O  0.47769187  0.56013154  0.50105915    -0.38840
O1911       O  0.37735261  0.51684721  0.51934610    -0.39550
O1912       O  0.40073934  0.49569560  0.52888046    -0.39610
C1913       C  0.23449221  0.32910908  0.23700933    -0.11890
C1914       C  0.24533375  0.32935712  0.25520160     0.05110
C1915       C  0.24523305  0.34705287  0.26734911    -0.07180
C1916       C  0.23475428  0.36429140  0.26055590    -0.07920
C1917       C  0.22420162  0.36434758  0.24205962    -0.02480
C1918       C  0.22346440  0.34613492  0.23055532     0.04340
N1919       N  0.21082642  0.34419937  0.21297798     0.66850
H1920       H  0.23402969  0.31526479  0.22812571     0.15750
H1921       H  0.23560794  0.37802065  0.26952330     0.15460
N1922       N  0.25602671  0.34803730  0.28628345     0.74550
O1923       O  0.21695656  0.33419749  0.19783297    -0.38900
O1924       O  0.19246804  0.34963128  0.21378386    -0.38840
O1925       O  0.27289353  0.33921383  0.28839098    -0.39550
O1926       O  0.24960931  0.35929280  0.30040200    -0.39610
C1927       C  0.25316104  0.67480639  0.23802657    -0.11890
C1928       C  0.25584002  0.67089669  0.25872921     0.05110
C1929       C  0.26626116  0.68543899  0.27064706    -0.07180
C1930       C  0.27233626  0.70386926  0.26191266    -0.07920
C1931       C  0.27033496  0.70757039  0.24101819    -0.02480
C1932       C  0.26083039  0.69250374  0.22897577     0.04340
N1933       N  0.26027432  0.69401332  0.20739261     0.66850
H1934       H  0.24557092  0.66372199  0.22856864     0.15750
H1935       H  0.27948251  0.71508936  0.27154979     0.15460
N1936       N  0.27226485  0.68123042  0.29111093     0.74550
O1937       O  0.27675237  0.69481243  0.19767541    -0.38900
O1938       O  0.24402767  0.69017600  0.19802762    -0.38840
O1939       O  0.28134521  0.66485488  0.29513371    -0.39550
O1940       O  0.27188240  0.69515785  0.30426529    -0.39610
C1941       C  0.40586416  0.52397688  0.02000514    -0.11890
C1942       C  0.40770811  0.51271299  0.00198253     0.05110
C1943       C  0.42702792  0.51133187  0.99262372    -0.07180
C1944       C  0.44365304  0.52140496  0.00123069    -0.07920
C1945       C  0.44179126  0.53244182  0.01927862    -0.02480
C1946       C  0.42257052  0.53389570  0.02888362     0.04340
N1947       N  0.41932489  0.54589820  0.04694053     0.66850
H1948       H  0.39113866  0.52537906  0.02713588     0.15750
H1949       H  0.45837983  0.52024419  0.99397282     0.15460
N1950       N  0.43036298  0.49922059  0.97487160     0.74550
O1951       O  0.40183573  0.55260734  0.05102401    -0.38900
O1952       O  0.43335489  0.54881371  0.05958240    -0.38840
O1953       O  0.44068585  0.50623445  0.96035533    -0.39550
O1954       O  0.42570462  0.48062883  0.97492382    -0.39610
C1955       C  0.10486425  0.54361340  0.99571889    -0.11890
C1956       C  0.10262500  0.52460939  0.00501254     0.05110
C1957       C  0.08357821  0.51476768  0.00444542    -0.07180
C1958       C  0.06717884  0.52432829  0.99495675    -0.07920
C1959       C  0.06920175  0.54360799  0.98619697    -0.02480
C1960       C  0.08840562  0.55329092  0.98624737     0.04340
N1961       N  0.09161456  0.57251380  0.97637923     0.66850
H1962       H  0.11962441  0.55087948  0.99573738     0.15750
H1963       H  0.05252398  0.51684038  0.99488739     0.15460
N1964       N  0.08071406  0.49481824  0.01265847     0.74550
O1965       O  0.10535721  0.58437573  0.98252782    -0.38900
O1966       O  0.08230252  0.57678279  0.96025223    -0.38840
O1967       O  0.08322495  0.49175755  0.03132847    -0.39550
O1968       O  0.07187141  0.48141932  0.00220698    -0.39610
loop_ 
_geom_bond_atom_site_label_1 
_geom_bond_atom_site_label_2 
_geom_bond_distance 
_geom_bond_site_symmetry_2 
_ccdc_geom_bond_type 
N1            N2   1.322       .  A
N1            C5   1.346       .  A
N1           Cu9   2.084       .  S
N2            C3   1.343       .  A
N2           Cu8   2.058       .  S
C3            C4   1.378       .  A
C3            H6   1.082       .  S
C4            C5   1.385       .  A
C4           C28   1.466       .  S
C5            H7   1.082   1_554  S
Cu8          N11   2.057       .  S
Cu9          N19   2.085       .  S
Cu10         N12   2.069       .  S
Cu10         N18   2.070       .  S
N11          N12   1.321       .  A
N11          C15   1.342       .  A
N12          C13   1.345       .  A
C13          C14   1.382       .  A
C13          H16   1.082       .  S
C14          C15   1.379       .  A
C14          C76   1.461       .  S
C15          H17   1.082       .  S
N18          N19   1.323       .  A
N18          C22   1.344       .  A
N19          C20   1.347       .  A
C20          C21   1.385       .  A
C20          H23   1.082   1_554  S
C21          C22   1.381       .  A
C21        C1956   1.477       .  S
C22          H24   1.081       .  S
N25          N26   1.323       .  A
N25          C29   1.347   1_556  A
N25         Cu33   2.085       .  S
N26          C27   1.343       .  A
N26         Cu32   2.059       .  S
C27          C28   1.378   1_556  A
C27          H30   1.082       .  S
C28          C29   1.384       .  A
C29          H31   1.082       .  S
Cu32         N35   2.058       .  S
Cu33         N43   2.085       .  S
Cu34         N36   2.070       .  S
Cu34         N42   2.070       .  S
N35          N36   1.321       .  A
N35          C39   1.343       .  A
N36          C37   1.344       .  A
C37          C38   1.382       .  A
C37          H40   1.082       .  S
C38          C39   1.380       .  A
C38         C172   1.462       .  S
C39          H41   1.082       .  S
N42          N43   1.321       .  A
N42          C46   1.343       .  A
N43          C44   1.346   1_556  A
C44          C45   1.391   1_554  A
C44          H47   1.082       .  S
C45          C46   1.387       .  A
C45        C1942   1.492   1_556  S
C46          H48   1.080       .  S
N49          N50   1.323       .  A
N49          C53   1.348       .  A
N49         Cu57   2.094       .  S
N50          C51   1.342       .  A
N50         Cu56   2.053       .  S
C51          C52   1.376       .  A
C51          H54   1.082       .  S
C52          C53   1.387       .  A
C52          C86   1.466       .  S
C53          H55   1.082       .  S
Cu56         N59   2.053       .  S
Cu57         N67   2.094       .  S
Cu58         N60   2.062       .  S
Cu58         N66   2.063       .  S
N59          N60   1.320       .  A
N59          C63   1.342       .  A
N60          C61   1.343       .  A
C61          C62   1.381       .  A
C61          H64   1.082       .  S
C62          C63   1.379       .  A
C62         C134   1.459       .  S
C63          H65   1.082       .  S
N66          N67   1.322       .  A
N66          C70   1.342       .  A
N67          C68   1.348       .  A
C68          C69   1.392       .  A
C68          H71   1.082       .  S
C69          C70   1.384       .  A
C69        C1928   1.491       .  S
C70          H72   1.081       .  S
N73          N74   1.321       .  A
N73          C77   1.344       .  A
N73         Cu81   2.070       .  S
N74          C75   1.343       .  A
N74         Cu80   2.055       .  S
C75          C76   1.379       .  A
C75          H78   1.082       .  S
C76          C77   1.382       .  A
C77          H79   1.082       .  S
Cu80         N83   2.057       .  S
Cu81         N91   2.070       .  S
Cu82         N84   2.085       .  S
Cu82         N90   2.086       .  S
N83          N84   1.322       .  A
N83          C87   1.344       .  A
N84          C85   1.346       .  A
C85          C86   1.385       .  A
C85          H88   1.082       .  S
C86          C87   1.378       .  A
C87          H89   1.082       .  S
N90          N91   1.321       .  A
N90          C94   1.346       .  A
N91          C92   1.343       .  A
C92          C93   1.388       .  A
C92          H95   1.081       .  S
C93          C94   1.392       .  A
C93        C1917   1.494       .  S
C94          H96   1.082       .  S
N97          N98   1.322       .  A
N97         C101   1.345       .  A
N97        Cu105   2.081       .  S
N98          C99   1.344       .  A
N98        Cu104   2.056       .  S
C99         C100   1.378       .  A
C99         H102   1.082       .  S
C100        C101   1.384       .  A
C100        C124   1.464       .  S
C101        H103   1.082       .  S
Cu104       N107   2.055       .  S
Cu105       N115   2.082       .  S
Cu106       N108   2.070       .  S
Cu106       N114   2.071       .  S
N107        N108   1.321       .  A
N107        C111   1.342       .  A
N108        C109   1.344       .  A
C109        C110   1.382       .  A
C109        H112   1.082       .  S
C110        C111   1.378       .  A
C110        C158   1.460       .  S
C111        H113   1.082       .  S
N114        N115   1.324       .  A
N114        C118   1.344       .  A
N115        C116   1.347       .  A
C116        C117   1.382       .  A
C116        H119   1.082       .  S
C117        C118   1.379       .  A
C117       C1900   1.471       .  S
C118        H120   1.082       .  S
N121        N122   1.322       .  A
N121        C125   1.347       .  A
N121       Cu129   2.085       .  S
N122        C123   1.341       .  A
N122       Cu128   2.051       .  S
C123        C124   1.376       .  A
C123        H126   1.082       .  S
C124        C125   1.386       .  A
C125        H127   1.082       .  S
Cu128       N131   2.049       .  S
Cu129       N139   2.086       .  S
Cu130       N132   2.067       .  S
Cu130       N138   2.068       .  S
N131        N132   1.320       .  A
N131        C135   1.341       .  A
N132        C133   1.344       .  A
C133        C134   1.382       .  A
C133        H136   1.082       .  S
C134        C135   1.378       .  A
C135        H137   1.082       .  S
N138        N139   1.324       .  A
N138        C142   1.343       .  A
N139        C140   1.347       .  A
C140        C141   1.383       .  A
C140        H143   1.082       .  S
C141        C142   1.378       .  A
C141       C1886   1.470       .  S
C142        H144   1.082       .  S
N145        N146   1.323       .  A
N145        C149   1.347       .  A
N145       Cu153   2.088       .  S
N146        C147   1.342       .  A
N146       Cu152   2.056       .  S
C147        C148   1.377       .  A
C147        H150   1.082       .  S
C148        C149   1.385       .  A
C148        C182   1.466       .  S
C149        H151   1.082       .  S
Cu152       N155   2.055       .  S
Cu153       N163   2.088       .  S
Cu154       N156   2.066       .  S
Cu154       N162   2.067       .  S
N155        N156   1.320       .  A
N155        C159   1.343       .  A
N156        C157   1.344       .  A
C157        C158   1.382       .  A
C157        H160   1.082       .  S
C158        C159   1.379       .  A
C159        H161   1.082       .  S
N162        N163   1.324       .  A
N162        C166   1.343       .  A
N163        C164   1.348       .  A
C164        C165   1.384       .  A
C164        H167   1.082       .  S
C165        C166   1.378       .  A
C165       C1872   1.472       .  S
C166        H168   1.082       .  S
N169        N170   1.321       .  A
N169        C173   1.345       .  A
N169       Cu177   2.073       .  S
N170        C171   1.342       .  A
N170       Cu176   2.057       .  S
C171        C172   1.378       .  A
C171        H174   1.082       .  S
C172        C173   1.383       .  A
C173        H175   1.082       .  S
Cu176       N179   2.058       .  S
Cu177       N187   2.074       .  S
Cu178       N180   2.080       .  S
Cu178       N186   2.080       .  S
N179        N180   1.322       .  A
N179        C183   1.344       .  A
N180        C181   1.345       .  A
C181        C182   1.384       .  A
C181        H184   1.082       .  S
C182        C183   1.378       .  A
C183        H185   1.082       .  S
N186        N187   1.324       .  A
N186        C190   1.346       .  A
N187        C188   1.345       .  A
C188        C189   1.380       .  A
C188        H191   1.082       .  S
C189        C190   1.382       .  A
C189       C1858   1.471       .  S
C190        H192   1.082       .  S
N193        N194   1.322       .  A
N193        C197   1.346       .  A
N193       Cu201   2.085       .  S
N194        C195   1.343       .  A
N194       Cu200   2.055       .  S
C195        C196   1.377       .  A
C195        H198   1.082       .  S
C196        C197   1.385       .  A
C196        C220   1.465       .  S
C197        H199   1.082       .  S
Cu200       N203   2.054       .  S
Cu201       N211   2.085       .  S
Cu202       N204   2.070       .  S
Cu202       N210   2.071       .  S
N203        N204   1.321       .  A
N203        C207   1.342       .  A
N204        C205   1.344       .  A
C205        C206   1.382       .  A
C205        H208   1.082       .  S
C206        C207   1.378       .  A
C206        C254   1.460       .  S
C207        H209   1.082       .  S
N210        N211   1.324       .  A
N210        C214   1.344       .  A
N211        C212   1.347       .  A
C212        C213   1.384       .  A
C212        H215   1.082       .  S
C213        C214   1.380       .  A
C213       C1844   1.475       .  S
C214        H216   1.082       .  S
N217        N218   1.321       .  A
N217        C221   1.348       .  A
N217       Cu225   2.088       .  S
N218        C219   1.341       .  A
N218       Cu224   2.046       .  S
C219        C220   1.376       .  A
C219        H222   1.082       .  S
C220        C221   1.387       .  A
C221        H223   1.082       .  S
Cu224       N227   2.044       .  S
Cu225       N235   2.090       .  S
Cu226       N228   2.075       .  S
Cu226       N234   2.077       .  S
N227        N228   1.320       .  A
N227        C231   1.340       .  A
N228        C229   1.346       .  A
C229        C230   1.384       .  A
C229        H232   1.082       .  S
C230        C231   1.376       .  A
C230        C326   1.461       .  S
C231        H233   1.082       .  S
N234        N235   1.325       .  A
N234        C238   1.345       .  A
N235        C236   1.347       .  A
C236        C237   1.384       .  A
C236        H239   1.082       .  S
C237        C238   1.379       .  A
C237       C1830   1.475       .  S
C238        H240   1.082       .  S
N241        N242   1.323       .  A
N241        C245   1.347       .  A
N241       Cu249   2.088       .  S
N242        C243   1.342       .  A
N242       Cu248   2.056       .  S
C243        C244   1.377       .  A
C243        H246   1.082       .  S
C244        C245   1.385       .  A
C244        C278   1.466       .  S
C245        H247   1.082       .  S
Cu248       N251   2.055       .  S
Cu249       N259   2.089       .  S
Cu250       N252   2.066       .  S
Cu250       N258   2.067       .  S
N251        N252   1.320       .  A
N251        C255   1.342       .  A
N252        C253   1.344       .  A
C253        C254   1.382       .  A
C253        H256   1.082       .  S
C254        C255   1.379       .  A
C255        H257   1.082       .  S
N258        N259   1.324       .  A
N258        C262   1.343       .  A
N259        C260   1.348       .  A
C260        C261   1.385       .  A
C260        H263   1.082       .  S
C261        C262   1.378       .  A
C261       C1816   1.473       .  S
C262        H264   1.082       .  S
N265        N266   1.322       .  A
N265        C269   1.346       .  A
N265       Cu273   2.082       .  S
N266        C267   1.343       .  A
N266       Cu272   2.058       .  S
C267        C268   1.378       .  A
C267        H270   1.082       .  S
C268        C269   1.384       .  A
C268        C374   1.465       .  S
C269        H271   1.082       .  S
Cu272       N275   2.059       .  S
Cu273       N283   2.083       .  S
Cu274       N276   2.080       .  S
Cu274       N282   2.081       .  S
N275        N276   1.322       .  A
N275        C279   1.344       .  A
N276        C277   1.346       .  A
C277        C278   1.384       .  A
C277        H280   1.082       .  S
C278        C279   1.379       .  A
C279        H281   1.082       .  S
N282        N283   1.324       .  A
N282        C286   1.346       .  A
N283        C284   1.346       .  A
C284        C285   1.382       .  A
C284        H287   1.082       .  S
C285        C286   1.382       .  A
C285       C1802   1.475       .  S
C286        H288   1.082       .  S
N289        N290   1.322       .  A
N289        C293   1.346       .  A
N289       Cu297   2.078       .  S
N290        C291   1.341       .  A
N290       Cu296   2.054       .  S
C291        C292   1.377       .  A
C291        H294   1.082       .  S
C292        C293   1.384       .  A
C292        C350   1.462       .  S
C293        H295   1.082       .  S
Cu296       N299   2.056       .  S
Cu297       N307   2.079       .  S
Cu298       N300   2.070       .  S
Cu298       N306   2.071       .  S
N299        N300   1.321       .  A
N299        C303   1.344       .  A
N300        C301   1.343       .  A
C301        C302   1.382       .  A
C301        H304   1.082       .  S
C302        C303   1.378       .  A
C302        C316   1.462       .  S
C303        H305   1.082       .  S
N306        N307   1.320       .  A
N306        C310   1.344       .  A
N307        C308   1.343       .  A
C308        C309   1.393       .  A
C308        H311   1.081       .  S
C309        C310   1.391       .  A
C309       C1791   1.497       .  S
C310        H312   1.079       .  S
N313        N314   1.323       .  A
N313        C317   1.347       .  A
N313       Cu321   2.087       .  S
N314        C315   1.340       .  A
N314       Cu320   2.048       .  S
C315        C316   1.375       .  A
C315        H318   1.082       .  S
C316        C317   1.385       .  A
C317        H319   1.082       .  S
Cu320       N323   2.047       .  S
Cu321       N331   2.089       .  S
Cu322       N324   2.068       .  S
Cu322       N330   2.068       .  S
N323        N324   1.320       .  A
N323        C327   1.342       .  A
N324        C325   1.343       .  A
C325        C326   1.383       .  A
C325        H328   1.082       .  S
C326        C327   1.379       .  A
C327        H329   1.082       .  S
N330        N331   1.322       .  A
N330        C334   1.342       .  A
N331        C332   1.347       .  A
C332        C333   1.392       .  A
C332        H335   1.082       .  S
C333        C334   1.387       .  A
C333       C1774   1.494       .  S
C334        H336   1.079       .  S
N337        N338   1.323       .  A
N337        C341   1.346       .  A
N337       Cu345   2.083       .  S
N338        C339   1.344       .  A
N338       Cu344   2.064       .  S
C339        C340   1.379       .  A
C339        H342   1.082       .  S
C340        C341   1.384       .  A
C340        C364   1.467       .  S
C341        H343   1.082       .  S
Cu344       N347   2.063       .  S
Cu345       N355   2.083       .  S
Cu346       N348   2.068       .  S
Cu346       N354   2.068       .  S
N347        N348   1.321       .  A
N347        C351   1.344       .  A
N348        C349   1.343       .  A
C349        C350   1.381       .  A
C349        H352   1.082       .  S
C350        C351   1.380       .  A
C351        H353   1.082       .  S
N354        N355   1.322       .  A
N354        C358   1.343       .  A
N355        C356   1.346       .  A
C356        C357   1.389       .  A
C356        H359   1.082       .  S
C357        C358   1.385       .  A
C357       C1763   1.487       .  S
C358        H360   1.082       .  S
N361        N362   1.322       .  A
N361        C365   1.346       .  A
N361       Cu369   2.079       .  S
N362        C363   1.344       .  A
N362       Cu368   2.062   1_545  S
C363        C364   1.379       .  A
C363        H366   1.082   1_545  S
C364        C365   1.384       .  A
C365        H367   1.082       .  S
Cu368       N371   2.062       .  S
Cu369       N379   2.080       .  S
Cu370       N372   2.080       .  S
Cu370       N378   2.081       .  S
N371        N372   1.322       .  A
N371        C375   1.344       .  A
N372        C373   1.346       .  A
C373        C374   1.384       .  A
C373        H376   1.082       .  S
C374        C375   1.379       .  A
C375        H377   1.082       .  S
N378        N379   1.323   1_565  A
N378        C382   1.346       .  A
N379        C380   1.346       .  A
C380        C381   1.384       .  A
C380        H383   1.081       .  S
C381        C382   1.384   1_545  A
C381       C1746   1.479       .  S
C382        H384   1.082       .  S
N385        N386   1.322       .  A
N385        C389   1.348       .  A
N385       Cu393   2.088       .  S
N386        C387   1.343       .  A
N386       Cu392   2.056       .  S
C387        C388   1.377       .  A
C387        H390   1.082       .  S
C388        C389   1.385       .  A
C388        C422   1.466       .  S
C389        H391   1.082       .  S
Cu392       N395   2.055       .  S
Cu393       N403   2.089       .  S
Cu394       N396   2.070       .  S
Cu394       N402   2.071       .  S
N395        N396   1.321       .  A
N395        C399   1.342       .  A
N396        C397   1.345       .  A
C397        C398   1.382       .  A
C397        H400   1.082       .  S
C398        C399   1.379       .  A
C398        C518   1.461       .  S
C399        H401   1.082       .  S
N402        N403   1.323       .  A
N402        C406   1.344       .  A
N403        C404   1.347       .  A
C404        C405   1.386       .  A
C404        H407   1.082       .  S
C405        C406   1.381       .  A
C405       C1732   1.478       .  S
C406        H408   1.081       .  S
N409        N410   1.322       .  A
N409        C413   1.345       .  A
N409       Cu417   2.070       .  S
N410        C411   1.343       .  A
N410       Cu416   2.061       .  S
C411        C412   1.379       .  A
C411        H414   1.082       .  S
C412        C413   1.381       .  A
C412        C470   1.460       .  S
C413        H415   1.082       .  S
Cu416       N419   2.062       .  S
Cu417       N427   2.071       .  S
Cu418       N420   2.083       .  S
Cu418       N426   2.083       .  S
N419        N420   1.322       .  A
N419        C423   1.344       .  A
N420        C421   1.346       .  A
C421        C422   1.384       .  A
C421        H424   1.082       .  S
C422        C423   1.379       .  A
C423        H425   1.082       .  S
N426        N427   1.322       .  A
N426        C430   1.346       .  A
N427        C428   1.344       .  A
C428        C429   1.386       .  A
C428        H431   1.081       .  S
C429        C430   1.388       .  A
C429       C1718   1.488       .  S
C430        H432   1.081       .  S
N433        N434   1.322       .  A
N433        C437   1.345       .  A
N433       Cu441   2.075       .  S
N434        C435   1.344       .  A
N434       Cu440   2.062       .  S
C435        C436   1.379       .  A
C435        H438   1.082       .  S
C436        C437   1.382       .  A
C436        C460   1.464   1_455  S
C437        H439   1.082   1_455  S
Cu440       N443   2.062       .  S
Cu441       N451   2.076       .  S
Cu442       N444   2.070       .  S
Cu442       N450   2.071       .  S
N443        N444   1.322       .  A
N443        C447   1.343       .  A
N444        C445   1.345       .  A
C445        C446   1.381       .  A
C445        H448   1.082       .  S
C446        C447   1.379       .  A
C446        C556   1.461       .  S
C447        H449   1.082       .  S
N450        N451   1.323       .  A
N450        C454   1.345       .  A
N451        C452   1.345       .  A
C452        C453   1.381       .  A
C452        H455   1.081   1_455  S
C453        C454   1.380       .  A
C453       C1707   1.471       .  S
C454        H456   1.082       .  S
N457        N458   1.323       .  A
N457        C461   1.346   1_655  A
N457       Cu465   2.080       .  S
N458        C459   1.343       .  A
N458       Cu464   2.062       .  S
C459        C460   1.378       .  A
C459        H462   1.082       .  S
C460        C461   1.383   1_655  A
C461        H463   1.082       .  S
Cu464       N467   2.062       .  S
Cu465       N475   2.081       .  S
Cu466       N468   2.065       .  S
Cu466       N474   2.065       .  S
N467        N468   1.321       .  A
N467        C471   1.343       .  A
N468        C469   1.344       .  A
C469        C470   1.380       .  A
C469        H472   1.082       .  S
C470        C471   1.380       .  A
C471        H473   1.082       .  S
N474        N475   1.321       .  A
N474        C478   1.343       .  A
N475        C476   1.345       .  A
C476        C477   1.390       .  A
C476        H479   1.082   1_655  S
C477        C478   1.386       .  A
C477       C1690   1.489       .  S
C478        H480   1.081       .  S
N481        N482   1.322       .  A
N481        C485   1.347       .  A
N481       Cu489   2.086       .  S
N482        C483   1.342       .  A
N482       Cu488   2.053       .  S
C483        C484   1.376       .  A
C483        H486   1.082       .  S
C484        C485   1.385       .  A
C484        C508   1.465       .  S
C485        H487   1.082       .  S
Cu488       N491   2.052       .  S
Cu489       N499   2.087       .  S
Cu490       N492   2.074       .  S
Cu490       N498   2.076       .  S
N491        N492   1.321       .  A
N491        C495   1.342       .  A
N492        C493   1.345       .  A
C493        C494   1.384       .  A
C493        H496   1.082       .  S
C494        C495   1.378       .  A
C494        C542   1.462       .  S
C495        H497   1.082       .  S
N498        N499   1.322       .  A
N498        C502   1.344       .  A
N499        C500   1.347       .  A
C500        C501   1.391       .  A
C500        H503   1.081       .  S
C501        C502   1.388       .  A
C501       C1676   1.494       .  S
C502        H504   1.081       .  S
N505        N506   1.322       .  A
N505        C509   1.346       .  A
N505       Cu513   2.084       .  S
N506        C507   1.343       .  A
N506       Cu512   2.057       .  S
C507        C508   1.377       .  A
C507        H510   1.082       .  S
C508        C509   1.384       .  A
C509        H511   1.082       .  S
Cu512       N515   2.056       .  S
Cu513       N523   2.084       .  S
Cu514       N516   2.070       .  S
Cu514       N522   2.071       .  S
N515        N516   1.321       .  A
N515        C519   1.342       .  A
N516        C517   1.344       .  A
C517        C518   1.382       .  A
C517        H520   1.082       .  S
C518        C519   1.379       .  A
C519        H521   1.082       .  S
N522        N523   1.324       .  A
N522        C526   1.344       .  A
N523        C524   1.347       .  A
C524        C525   1.383       .  A
C524        H527   1.082       .  S
C525        C526   1.379       .  A
C525       C1662   1.472       .  S
C526        H528   1.082       .  S
N529        N530   1.323       .  A
N529        C533   1.347       .  A
N529       Cu537   2.087       .  S
N530        C531   1.342       .  A
N530       Cu536   2.055       .  S
C531        C532   1.376       .  A
C531        H534   1.082       .  S
C532        C533   1.385       .  A
C532        C566   1.464       .  S
C533        H535   1.082       .  S
Cu536       N539   2.055       .  S
Cu537       N547   2.086       .  S
Cu538       N540   2.071       .  S
Cu538       N546   2.072       .  S
N539        N540   1.320       .  A
N539        C543   1.343       .  A
N540        C541   1.345       .  A
C541        C542   1.383       .  A
C541        H544   1.082       .  S
C542        C543   1.379       .  A
C543        H545   1.082       .  S
N546        N547   1.322       .  A
N546        C550   1.341       .  A
N547        C548   1.349       .  A
C548        C549   1.391       .  A
C548        H551   1.081       .  S
C549        C550   1.387       .  A
C549       C1648   1.493       .  S
C550        H552   1.082       .  S
N553        N554   1.321       .  A
N553        C557   1.344       .  A
N553       Cu561   2.070       .  S
N554        C555   1.343       .  A
N554       Cu560   2.057       .  S
C555        C556   1.379       .  A
C555        H558   1.082       .  S
C556        C557   1.382       .  A
C557        H559   1.082       .  S
Cu560       N563   2.058       .  S
Cu561       N571   2.071       .  S
Cu562       N564   2.078       .  S
Cu562       N570   2.078       .  S
N563        N564   1.322       .  A
N563        C567   1.343       .  A
N564        C565   1.345       .  A
C565        C566   1.383       .  A
C565        H568   1.082       .  S
C566        C567   1.378       .  A
C567        H569   1.082       .  S
N570        N571   1.323       .  A
N570        C574   1.346       .  A
N571        C572   1.344       .  A
C572        C573   1.380       .  A
C572        H575   1.082       .  S
C573        C574   1.382       .  A
C573       C1634   1.471       .  S
C574        H576   1.082       .  S
N577        N578   1.322       .  A
N577        C581   1.346   1_565  A
N577       Cu585   2.085       .  S
N578        C579   1.343   1_565  A
N578       Cu584   2.057       .  S
C579        C580   1.377       .  A
C579        H582   1.082       .  S
C580        C581   1.385       .  A
C580        C604   1.466       .  S
C581        H583   1.082   1_545  S
Cu584       N587   2.056       .  S
Cu585       N595   2.086       .  S
Cu586       N588   2.073       .  S
Cu586       N594   2.074       .  S
N587        N588   1.321       .  A
N587        C591   1.342       .  A
N588        C589   1.345       .  A
C589        C590   1.383       .  A
C589        H592   1.082       .  S
C590        C591   1.379       .  A
C590        C638   1.462       .  S
C591        H593   1.082       .  S
N594        N595   1.324       .  A
N594        C598   1.344       .  A
N595        C596   1.348       .  A
C596        C597   1.385       .  A
C596        H599   1.082       .  S
C597        C598   1.381       .  A
C597       C1620   1.478       .  S
C598        H600   1.082       .  S
N601        N602   1.322       .  A
N601        C605   1.347       .  A
N601       Cu609   2.085       .  S
N602        C603   1.343       .  A
N602       Cu608   2.056       .  S
C603        C604   1.377       .  A
C603        H606   1.082       .  S
C604        C605   1.385       .  A
C605        H607   1.082       .  S
Cu608       N611   2.055       .  S
Cu609       N619   2.086       .  S
Cu610       N612   2.072       .  S
Cu610       N618   2.073       .  S
N611        N612   1.321       .  A
N611        C615   1.342       .  A
N612        C613   1.345       .  A
C613        C614   1.383       .  A
C613        H616   1.082       .  S
C614        C615   1.378       .  A
C614        C724   1.462       .  S
C615        H617   1.082       .  S
N618        N619   1.324       .  A
N618        C622   1.344       .  A
N619        C620   1.347       .  A
C620        C621   1.383       .  A
C620        H623   1.082       .  S
C621        C622   1.380       .  A
C621       C1606   1.474       .  S
C622        H624   1.082       .  S
N625        N626   1.322       .  A
N625        C629   1.347       .  A
N625       Cu633   2.085       .  S
N626        C627   1.342       .  A
N626       Cu632   2.057       .  S
C627        C628   1.377       .  A
C627        H630   1.082       .  S
C628        C629   1.384       .  A
C628        C662   1.465       .  S
C629        H631   1.082       .  S
Cu632       N635   2.056       .  S
Cu633       N643   2.086       .  S
Cu634       N636   2.072       .  S
Cu634       N642   2.073       .  S
N635        N636   1.321       .  A
N635        C639   1.343       .  A
N636        C637   1.345       .  A
C637        C638   1.383       .  A
C637        H640   1.082       .  S
C638        C639   1.379       .  A
C639        H641   1.082       .  S
N642        N643   1.324       .  A
N642        C646   1.345   1_565  A
N643        C644   1.347   1_565  A
C644        C645   1.383       .  A
C644        H647   1.082       .  S
C645        C646   1.381       .  A
C645       C1592   1.475       .  S
C646        H648   1.082       .  S
N649        N650   1.322       .  A
N649        C653   1.346       .  A
N649       Cu657   2.078       .  S
N650        C651   1.343       .  A
N650       Cu656   2.060       .  S
C651        C652   1.379       .  A
C651        H654   1.082       .  S
C652        C653   1.384       .  A
C652        C700   1.464       .  S
C653        H655   1.082       .  S
Cu656       N659   2.061       .  S
Cu657       N667   2.079       .  S
Cu658       N660   2.080       .  S
Cu658       N666   2.080       .  S
N659        N660   1.322       .  A
N659        C663   1.344       .  A
N660        C661   1.345       .  A
C661        C662   1.383       .  A
C661        H664   1.082       .  S
C662        C663   1.379       .  A
C663        H665   1.082       .  S
N666        N667   1.322       .  A
N666        C670   1.346   1_565  A
N667        C668   1.344   1_565  A
C668        C669   1.389       .  A
C668        H671   1.081       .  S
C669        C670   1.389       .  A
C669       C1578   1.493       .  S
C670        H672   1.081       .  S
N673        N674   1.321       .  A
N673        C677   1.346       .  A
N673       Cu681   2.078       .  S
N674        C675   1.343       .  A
N674       Cu680   2.057       .  S
C675        C676   1.379       .  A
C675        H678   1.082       .  S
C676        C677   1.384       .  A
C676        C748   1.464       .  S
C677        H679   1.082       .  S
Cu680       N683   2.058       .  S
Cu681       N691   2.080       .  S
Cu682       N684   2.086       .  S
Cu682       N690   2.087       .  S
N683        N684   1.322       .  A
N683        C687   1.343       .  A
N684        C685   1.347       .  A
C685        C686   1.385       .  A
C685        H688   1.082       .  S
C686        C687   1.378       .  A
C686        C710   1.467       .  S
C687        H689   1.082       .  S
N690        N691   1.324       .  A
N690        C694   1.348       .  A
N691        C692   1.345       .  A
C692        C693   1.382       .  A
C692        H695   1.082       .  S
C693        C694   1.384       .  A
C693       C1564   1.479       .  S
C694        H696   1.082       .  S
N697        N698   1.321       .  A
N697        C701   1.346       .  A
N697       Cu705   2.077       .  S
N698        C699   1.343       .  A
N698       Cu704   2.060       .  S
C699        C700   1.379       .  A
C699        H702   1.082       .  S
C700        C701   1.383       .  A
C701        H703   1.082       .  S
Cu704       N707   2.060       .  S
Cu705       N715   2.078       .  S
Cu706       N708   2.084       .  S
Cu706       N714   2.084       .  S
N707        N708   1.322       .  A
N707        C711   1.344   1_565  A
N708        C709   1.347   1_565  A
C709        C710   1.385       .  A
C709        H712   1.082       .  S
C710        C711   1.378       .  A
C711        H713   1.082       .  S
N714        N715   1.324       .  A
N714        C718   1.347       .  A
N715        C716   1.345       .  A
C716        C717   1.381       .  A
C716        H719   1.082       .  S
C717        C718   1.383       .  A
C717       C1550   1.475       .  S
C718        H720   1.082       .  S
N721        N722   1.321       .  A
N721        C725   1.344       .  A
N721       Cu729   2.071       .  S
N722        C723   1.343       .  A
N722       Cu728   2.057       .  S
C723        C724   1.379       .  A
C723        H726   1.082       .  S
C724        C725   1.382       .  A
C725        H727   1.082       .  S
Cu728       N731   2.058       .  S
Cu729       N739   2.072       .  S
Cu730       N732   2.082       .  S
Cu730       N738   2.082       .  S
N731        N732   1.322       .  A
N731        C735   1.343       .  A
N732        C733   1.346   1_556  A
C733        C734   1.384       .  A
C733        H736   1.082       .  S
C734        C735   1.378   1_554  A
C734        C758   1.465       .  S
C735        H737   1.082       .  S
N738        N739   1.320       .  A
N738        C742   1.344   1_556  A
N739        C740   1.343       .  A
C740        C741   1.391       .  A
C740        H743   1.078       .  S
C741        C742   1.393   1_556  A
C741       C1536   1.499   1_556  S
C742        H744   1.081       .  S
N745        N746   1.321       .  A
N745        C749   1.345       .  A
N745       Cu753   2.077       .  S
N746        C747   1.343       .  A
N746       Cu752   2.058       .  S
C747        C748   1.379       .  A
C747        H750   1.082       .  S
C748        C749   1.384       .  A
C749        H751   1.082       .  S
Cu752       N755   2.059       .  S
Cu753       N763   2.077       .  S
Cu754       N756   2.080       .  S
Cu754       N762   2.080       .  S
N755        N756   1.322       .  A
N755        C759   1.343       .  A
N756        C757   1.346       .  A
C757        C758   1.384       .  A
C757        H760   1.082   1_554  S
C758        C759   1.378       .  A
C759        H761   1.082       .  S
N762        N763   1.324       .  A
N762        C766   1.346       .  A
N763        C764   1.345       .  A
C764        C765   1.381       .  A
C764        H767   1.082       .  S
C765        C766   1.381       .  A
C765       C1525   1.473       .  S
C766        H768   1.082   1_554  S
C769        C770   1.403       .  A
C769        C774   1.403       .  A
C769       C1508   1.477       .  S
C770        C771   1.401   1_565  A
C770        H775   1.084       .  S
C771        C772   1.402       .  A
C771       C1760   1.475       .  S
C772        C773   1.404       .  A
C772        H776   1.084       .  S
C773        C774   1.405   1_545  A
C773       C1539   1.480       .  S
C774        H777   1.084       .  S
C778        C779   1.410       .  A
C778        C783   1.411       .  A
C778       C1679   1.501       .  S
C779        C780   1.403       .  A
C779        H784   1.082       .  S
C780        C781   1.400       .  A
C780       C1749   1.478       .  S
C781        C782   1.401       .  A
C781        H785   1.084       .  S
C782        C783   1.405       .  A
C782       C1595   1.484       .  S
C783        H786   1.083       .  S
N787        N788   1.322       .  A
N787        C791   1.346       .  A
N787       Cu795   2.082       .  S
N788        C789   1.344       .  A
N788       Cu794   2.059       .  S
C789        C790   1.378       .  A
C789        H792   1.082   1_556  S
C790        C791   1.384       .  A
C790        C814   1.465   1_556  S
C791        H793   1.082       .  S
Cu794       N797   2.058       .  S
Cu795       N805   2.083       .  S
Cu796       N798   2.077       .  S
Cu796       N804   2.078       .  S
N797        N798   1.321       .  A
N797        C801   1.343       .  A
N798        C799   1.345       .  A
C799        C800   1.383       .  A
C799        H802   1.082       .  S
C800        C801   1.379       .  A
C800        C848   1.463       .  S
C801        H803   1.082       .  S
N804        N805   1.322       .  A
N804        C808   1.345       .  A
N805        C806   1.346       .  A
C806        C807   1.388       .  A
C806        H809   1.082       .  S
C807        C808   1.387       .  A
C807       C1494   1.490       .  S
C808        H810   1.082       .  S
N811        N812   1.322       .  A
N811        C815   1.347       .  A
N811       Cu819   2.085       .  S
N812        C813   1.343       .  A
N812       Cu818   2.056       .  S
C813        C814   1.377       .  A
C813        H816   1.082       .  S
C814        C815   1.385       .  A
C815        H817   1.082       .  S
Cu818       N821   2.055       .  S
Cu819       N829   2.086       .  S
Cu820       N822   2.077       .  S
Cu820       N828   2.077       .  S
N821        N822   1.321       .  A
N821        C825   1.342       .  A
N822        C823   1.346       .  A
C823        C824   1.384       .  A
C823        H826   1.082       .  S
C824        C825   1.378       .  A
C824        C886   1.463       .  S
C825        H827   1.082       .  S
N828        N829   1.321       .  A
N828        C832   1.343       .  A
N829        C830   1.346       .  A
C830        C831   1.394       .  A
C830        H833   1.081       .  S
C831        C832   1.392       .  A
C831       C1480   1.502       .  S
C832        H834   1.079       .  S
N835        N836   1.322       .  A
N835        C839   1.347       .  A
N835       Cu843   2.084       .  S
N836        C837   1.342       .  A
N836       Cu842   2.056       .  S
C837        C838   1.377       .  A
C837        H840   1.082       .  S
C838        C839   1.385       .  A
C838        C872   1.465       .  S
C839        H841   1.082       .  S
Cu842       N845   2.055       .  S
Cu843       N853   2.085       .  S
Cu844       N846   2.075       .  S
Cu844       N852   2.076       .  S
N845        N846   1.321       .  A
N845        C849   1.342       .  A
N846        C847   1.346       .  A
C847        C848   1.384       .  A
C847        H850   1.082       .  S
C848        C849   1.378       .  A
C849        H851   1.082       .  S
N852        N853   1.323       .  A
N852        C856   1.344       .  A
N853        C854   1.347       .  A
C854        C855   1.387       .  A
C854        H857   1.082       .  S
C855        C856   1.383       .  A
C855       C1466   1.484       .  S
C856        H858   1.082       .  S
N859        N860   1.321       .  A
N859        C863   1.345       .  A
N859       Cu867   2.079       .  S
N860        C861   1.343       .  A
N860       Cu866   2.058       .  S
C861        C862   1.379       .  A
C861        H864   1.082       .  S
C862        C863   1.384       .  A
C862        C934   1.464       .  S
C863        H865   1.082       .  S
Cu866       N869   2.058       .  S
Cu867       N877   2.079       .  S
Cu868       N870   2.080       .  S
Cu868       N876   2.080       .  S
N869        N870   1.322       .  A
N869        C873   1.344       .  A
N870        C871   1.346       .  A
C871        C872   1.384       .  A
C871        H874   1.082       .  S
C872        C873   1.378       .  A
C873        H875   1.082       .  S
N876        N877   1.322       .  A
N876        C880   1.346       .  A
N877        C878   1.345       .  A
C878        C879   1.387       .  A
C878        H881   1.082       .  S
C879        C880   1.388       .  A
C879       C1511   1.490       .  S
C880        H882   1.081       .  S
N883        N884   1.321       .  A
N883        C887   1.344       .  A
N883       Cu891   2.074       .  S
N884        C885   1.344       .  A
N884       Cu890   2.060       .  S
C885        C886   1.380       .  A
C885        H888   1.082       .  S
C886        C887   1.382       .  A
C887        H889   1.082       .  S
Cu890       N893   2.061       .  S
Cu891       N901   2.075       .  S
Cu892       N894   2.079       .  S
Cu892       N900   2.079       .  S
N893        N894   1.322       .  A
N893        C897   1.344       .  A
N894        C895   1.345   1_655  A
C895        C896   1.383   1_455  A
C895        H898   1.082       .  S
C896        C897   1.379       .  A
C896        C920   1.465   1_655  S
C897        H899   1.082       .  S
N900        N901   1.323       .  A
N900        C904   1.347   1_655  A
N901        C902   1.345       .  A
C902        C903   1.381       .  A
C902        H905   1.082       .  S
C903        C904   1.383   1_655  A
C903       C1452   1.474   1_655  S
C904        H906   1.082       .  S
N907        N908   1.321       .  A
N907        C911   1.345       .  A
N907       Cu915   2.072       .  S
N908        C909   1.342       .  A
N908       Cu914   2.056       .  S
C909        C910   1.378       .  A
C909        H912   1.082       .  S
C910        C911   1.382       .  A
C910        C958   1.461       .  S
C911        H913   1.082       .  S
Cu914       N917   2.057       .  S
Cu915       N925   2.073       .  S
Cu916       N918   2.083       .  S
Cu916       N924   2.084       .  S
N917        N918   1.322       .  A
N917        C921   1.342       .  A
N918        C919   1.347       .  A
C919        C920   1.384       .  A
C919        H922   1.082   1_455  S
C920        C921   1.377       .  A
C921        H923   1.082       .  S
N924        N925   1.320       .  A
N924        C928   1.344       .  A
N925        C926   1.344       .  A
C926        C927   1.392       .  A
C926        H929   1.077       .  S
C927        C928   1.395       .  A
C927       C1438   1.503       .  S
C928        H930   1.080   1_455  S
N931        N932   1.322       .  A
N931        C935   1.346       .  A
N931       Cu939   2.080       .  S
N932        C933   1.342       .  A
N932       Cu938   2.056       .  S
C933        C934   1.378       .  A
C933        H936   1.082       .  S
C934        C935   1.384       .  A
C935        H937   1.082       .  S
Cu938       N941   2.057       .  S
Cu939       N949   2.081       .  S
Cu940       N942   2.081       .  S
Cu940       N948   2.081       .  S
N941        N942   1.322       .  A
N941        C945   1.343       .  A
N942        C943   1.346       .  A
C943        C944   1.384       .  A
C943        H946   1.082       .  S
C944        C945   1.378       .  A
C944        C968   1.466   1_556  S
C945        H947   1.082   1_556  S
N948        N949   1.324       .  A
N948        C952   1.347       .  A
N949        C950   1.346       .  A
C950        C951   1.381       .  A
C950        H953   1.082       .  S
C951        C952   1.382       .  A
C951       C1424   1.474       .  S
C952        H954   1.081       .  S
N955        N956   1.321       .  A
N955        C959   1.345       .  A
N955       Cu963   2.073       .  S
N956        C957   1.343       .  A
N956       Cu962   2.057       .  S
C957        C958   1.378       .  A
C957        H960   1.082       .  S
C958        C959   1.382       .  A
C959        H961   1.082       .  S
Cu962       N965   2.057       .  S
Cu963       N973   2.074       .  S
Cu964       N966   2.086       .  S
Cu964       N972   2.086       .  S
N965        N966   1.322       .  A
N965        C969   1.343       .  A
N966        C967   1.347       .  A
C967        C968   1.385       .  A
C967        H970   1.082       .  S
C968        C969   1.378       .  A
C969        H971   1.082       .  S
N972        N973   1.324       .  A
N972        C976   1.347       .  A
N973        C974   1.345       .  A
C974        C975   1.380       .  A
C974        H977   1.082       .  S
C975        C976   1.383       .  A
C975       C1413   1.474       .  S
C976        H978   1.081       .  S
C979        C980   1.404       .  A
C979        C984   1.409       .  A
C979       C1396   1.497       .  S
C980        C981   1.400       .  A
C980        H985   1.083       .  S
C981        C982   1.402       .  A
C981       C1959   1.482       .  S
C982        C983   1.411       .  A
C982        H986   1.082       .  S
C983        C984   1.412       .  A
C983       C1455   1.507       .  S
C984        H987   1.079   1_455  S
C988        C989   1.406       .  A
C988        C993   1.406       .  A
C988       C1833   1.487       .  S
C989        C990   1.404       .  A
C989        H994   1.084       .  S
C990        C991   1.402       .  A
C990       C1945   1.478       .  S
C991        C992   1.401       .  A
C991        H995   1.084       .  S
C992        C993   1.404       .  A
C992       C1469   1.476       .  S
C993        H996   1.084       .  S
N997        N998   1.323       .  A
N997       C1001   1.346       .  A
N997      Cu1005   2.085       .  S
N998        C999   1.344       .  A
N998      Cu1004   2.062       .  S
C999       C1000   1.378       .  A
C999       H1002   1.082   1_655  S
C1000      C1001   1.384       .  A
C1000      C1024   1.465   1_655  S
C1001      H1003   1.082       .  S
Cu1004     N1007   2.061       .  S
Cu1005     N1015   2.086       .  S
Cu1006     N1008   2.066       .  S
Cu1006     N1014   2.067       .  S
N1007      N1008   1.321       .  A
N1007      C1011   1.343       .  A
N1008      C1009   1.344       .  A
C1009      C1010   1.381       .  A
C1009      H1012   1.082       .  S
C1010      C1011   1.380       .  A
C1010      C1058   1.460       .  S
C1011      H1013   1.082       .  S
N1014      N1015   1.321       .  A
N1014      C1018   1.342       .  A
N1015      C1016   1.347       .  A
C1016      C1017   1.391       .  A
C1016      H1019   1.081       .  S
C1017      C1018   1.386       .  A
C1017      C1382   1.491       .  S
C1018      H1020   1.081       .  S
N1021      N1022   1.323       .  A
N1021      C1025   1.347       .  A
N1021     Cu1029   2.085       .  S
N1022      C1023   1.343       .  A
N1022     Cu1028   2.060       .  S
C1023      C1024   1.378       .  A
C1023      H1026   1.082       .  S
C1024      C1025   1.384       .  A
C1025      H1027   1.082       .  S
Cu1028     N1031   2.059       .  S
Cu1029     N1039   2.086       .  S
Cu1030     N1032   2.069       .  S
Cu1030     N1038   2.070       .  S
N1031      N1032   1.321       .  A
N1031      C1035   1.343       .  A
N1032      C1033   1.344       .  A
C1033      C1034   1.382       .  A
C1033      H1036   1.082       .  S
C1034      C1035   1.379       .  A
C1034      C1096   1.462       .  S
C1035      H1037   1.082       .  S
N1038      N1039   1.322       .  A
N1038      C1042   1.343       .  A
N1039      C1040   1.347       .  A
C1040      C1041   1.389       .  A
C1040      H1043   1.082       .  S
C1041      C1042   1.385       .  A
C1041      C1371   1.488       .  S
C1042      H1044   1.081       .  S
N1045      N1046   1.323       .  A
N1045      C1049   1.347       .  A
N1045     Cu1053   2.084       .  S
N1046      C1047   1.343       .  A
N1046     Cu1052   2.061       .  S
C1047      C1048   1.378       .  A
C1047      H1050   1.082       .  S
C1048      C1049   1.384       .  A
C1048      C1082   1.466       .  S
C1049      H1051   1.082       .  S
Cu1052     N1055   2.060       .  S
Cu1053     N1063   2.085       .  S
Cu1054     N1056   2.068       .  S
Cu1054     N1062   2.069       .  S
N1055      N1056   1.321       .  A
N1055      C1059   1.343       .  A
N1056      C1057   1.345       .  A
C1057      C1058   1.381       .  A
C1057      H1060   1.082       .  S
C1058      C1059   1.379       .  A
C1059      H1061   1.082       .  S
N1062      N1063   1.322       .  A
N1062      C1066   1.343       .  A
N1063      C1064   1.346       .  A
C1064      C1065   1.390       .  A
C1064      H1067   1.082       .  S
C1065      C1066   1.386       .  A
C1065      C1354   1.490       .  S
C1066      H1068   1.081       .  S
N1069      N1070   1.321       .  A
N1069      C1073   1.344       .  A
N1069     Cu1077   2.069       .  S
N1070      C1071   1.343       .  A
N1070     Cu1076   2.060       .  S
C1071      C1072   1.379       .  A
C1071      H1074   1.082       .  S
C1072      C1073   1.381       .  A
C1072      C1168   1.461       .  S
C1073      H1075   1.082       .  S
Cu1076     N1079   2.061       .  S
Cu1077     N1087   2.069       .  S
Cu1078     N1080   2.084       .  S
Cu1078     N1086   2.084       .  S
N1079      N1080   1.322       .  A
N1079      C1083   1.344       .  A
N1080      C1081   1.346       .  A
C1081      C1082   1.384       .  A
C1081      H1084   1.082       .  S
C1082      C1083   1.378       .  A
C1083      H1085   1.082       .  S
N1086      N1087   1.324       .  A
N1086      C1090   1.347       .  A
N1087      C1088   1.345       .  A
C1088      C1089   1.379       .  A
C1088      H1091   1.082       .  S
C1089      C1090   1.383       .  A
C1089      C1399   1.472       .  S
C1090      H1092   1.082       .  S
N1093      N1094   1.321       .  A
N1093      C1097   1.345       .  A
N1093     Cu1101   2.072       .  S
N1094      C1095   1.343       .  A
N1094     Cu1100   2.059       .  S
C1095      C1096   1.379       .  A
C1095      H1098   1.082       .  S
C1096      C1097   1.382       .  A
C1097      H1099   1.082       .  S
Cu1100     N1103   2.059   1_565  S
Cu1101     N1111   2.072       .  S
Cu1102     N1104   2.081       .  S
Cu1102     N1110   2.082       .  S
N1103      N1104   1.322       .  A
N1103      C1107   1.343       .  A
N1104      C1105   1.346       .  A
C1105      C1106   1.384       .  A
C1105      H1108   1.082       .  S
C1106      C1107   1.378       .  A
C1106      C1130   1.464       .  S
C1107      H1109   1.082   1_545  S
N1110      N1111   1.323   1_545  A
N1110      C1114   1.346       .  A
N1111      C1112   1.345       .  A
C1112      C1113   1.381   1_565  A
C1112      H1115   1.082       .  S
C1113      C1114   1.385       .  A
C1113      C1343   1.478       .  S
C1114      H1116   1.082       .  S
N1117      N1118   1.322       .  A
N1117      C1121   1.346       .  A
N1117     Cu1125   2.080       .  S
N1118      C1119   1.342       .  A
N1118     Cu1124   2.058       .  S
C1119      C1120   1.378       .  A
C1119      H1122   1.082       .  S
C1120      C1121   1.384       .  A
C1120      C1144   1.464       .  S
C1121      H1123   1.082       .  S
Cu1124     N1127   2.059       .  S
Cu1125     N1135   2.081       .  S
Cu1126     N1128   2.079       .  S
Cu1126     N1134   2.080       .  S
N1127      N1128   1.322       .  A
N1127      C1131   1.343       .  A
N1128      C1129   1.346       .  A
C1129      C1130   1.383       .  A
C1129      H1132   1.082       .  S
C1130      C1131   1.378       .  A
C1131      H1133   1.082       .  S
N1134      N1135   1.322       .  A
N1134      C1138   1.345       .  A
N1135      C1136   1.345       .  A
C1136      C1137   1.390       .  A
C1136      H1139   1.080       .  S
C1137      C1138   1.389       .  A
C1137      C1329   1.495       .  S
C1138      H1140   1.081       .  S
N1141      N1142   1.321       .  A
N1141      C1145   1.345       .  A
N1141     Cu1149   2.077       .  S
N1142      C1143   1.343       .  A
N1142     Cu1148   2.059       .  S
C1143      C1144   1.379       .  A
C1143      H1146   1.082       .  S
C1144      C1145   1.384       .  A
C1145      H1147   1.082       .  S
Cu1148     N1151   2.059       .  S
Cu1149     N1159   2.077       .  S
Cu1150     N1152   2.087       .  S
Cu1150     N1158   2.088       .  S
N1151      N1152   1.322       .  A
N1151      C1155   1.343       .  A
N1152      C1153   1.347       .  A
C1153      C1154   1.385       .  A
C1153      H1156   1.082       .  S
C1154      C1155   1.378       .  A
C1154      C1178   1.467   1_455  S
C1155      H1157   1.082       .  S
N1158      N1159   1.324       .  A
N1158      C1162   1.347       .  A
N1159      C1160   1.346       .  A
C1160      C1161   1.382       .  A
C1160      H1163   1.082       .  S
C1161      C1162   1.384       .  A
C1161      C1312   1.477       .  S
C1162      H1164   1.082       .  S
N1165      N1166   1.321       .  A
N1165      C1169   1.344       .  A
N1165     Cu1173   2.068       .  S
N1166      C1167   1.343       .  A
N1166     Cu1172   2.058       .  S
C1167      C1168   1.379       .  A
C1167      H1170   1.082       .  S
C1168      C1169   1.381       .  A
C1169      H1171   1.082       .  S
Cu1172     N1175   2.060       .  S
Cu1173     N1183   2.068       .  S
Cu1174     N1176   2.087       .  S
Cu1174     N1182   2.087       .  S
N1175      N1176   1.323       .  A
N1175      C1179   1.343       .  A
N1176      C1177   1.347       .  A
C1177      C1178   1.385       .  A
C1177      H1180   1.082       .  S
C1178      C1179   1.378       .  A
C1179      H1181   1.082   1_655  S
N1182      N1183   1.323       .  A
N1182      C1186   1.347       .  A
N1183      C1184   1.344       .  A
C1184      C1185   1.381       .  A
C1184      H1187   1.082       .  S
C1185      C1186   1.386       .  A
C1185      C1298   1.477       .  S
C1186      H1188   1.082       .  S
C1189      C1190   1.407       .  A
C1189      C1194   1.408       .  A
C1189      C1581   1.493       .  S
C1190      C1191   1.404       .  A
C1190      H1195   1.083       .  S
C1191      C1192   1.403       .  A
C1191      C1704   1.483       .  S
C1192      C1193   1.401       .  A
C1192      H1196   1.084   1_655  S
C1193      C1194   1.403       .  A
C1193      C1340   1.477       .  S
C1194      H1197   1.083       .  S
C1198      C1199   1.404       .  A
C1198      C1203   1.400       .  A
C1198      C1889   1.484       .  S
C1199      C1200   1.408       .  A
C1199      H1204   1.083       .  S
C1200      C1201   1.410       .  A
C1200      C1693   1.497       .  S
C1201      C1202   1.406       .  A
C1201      H1205   1.081       .  S
C1202      C1203   1.405       .  A
C1202      C1357   1.494       .  S
C1203      H1206   1.084       .  S
C1207      C1208   1.408       .  A
C1207      C1212   1.406   1_545  A
C1207      C1326   1.493       .  S
C1208      C1209   1.407       .  A
C1208      H1213   1.082       .  S
C1209      C1210   1.407   1_545  A
C1209      C1522   1.498       .  S
C1210      C1211   1.401       .  A
C1210      H1214   1.083   1_556  S
C1211      C1212   1.403       .  A
C1211      C1441   1.483   1_556  S
C1212      H1215   1.083   1_655  S
C1216      C1217   1.402       .  A
C1216      C1221   1.398       .  A
C1216      C1497   1.478       .  S
C1217      C1218   1.417       .  A
C1217      H1222   1.082       .  S
C1218      C1219   1.414       .  A
C1218      C1623   1.517       .  S
C1219      C1220   1.406       .  A
C1219      H1223   1.079       .  S
C1220      C1221   1.401       .  A
C1220      C1385   1.490       .  S
C1221      H1224   1.083       .  S
C1225      C1226   1.406       .  A
C1225      C1230   1.407       .  A
C1225      C1368   1.498       .  S
C1226      C1227   1.410       .  A
C1226      H1231   1.082       .  S
C1227      C1228   1.408       .  A
C1227      C1875   1.500       .  S
C1228      C1229   1.405       .  A
C1228      H1232   1.080       .  S
C1229      C1230   1.404       .  A
C1229      C1427   1.496       .  S
C1230      H1233   1.082       .  S
C1234      C1235   1.405       .  A
C1234      C1239   1.405       .  A
C1234      C1609   1.485       .  S
C1235      C1236   1.404       .  A
C1235      H1240   1.084       .  S
C1236      C1237   1.402       .  A
C1236      C1735   1.480       .  S
C1237      C1238   1.403       .  A
C1237      H1241   1.084       .  S
C1238      C1239   1.402       .  A
C1238      C1301   1.478       .  S
C1239      H1242   1.084       .  S
C1243      C1244   1.402       .  A
C1243      C1248   1.405       .  A
C1243      C1483   1.485       .  S
C1244      C1245   1.405       .  A
C1244      H1249   1.084       .  S
C1245      C1246   1.406       .  A
C1245      C1819   1.491       .  S
C1246      C1247   1.410       .  A
C1246      H1250   1.081       .  S
C1247      C1248   1.408       .  A
C1247      C1553   1.502       .  S
C1248      H1251   1.082       .  S
C1252      C1253   1.414       .  A
C1252      C1257   1.417       .  A
C1252      C1567   1.518       .  S
C1253      C1254   1.402       .  A
C1253      H1258   1.078       .  S
C1254      C1255   1.396       .  A
C1254      C1777   1.481       .  S
C1255      C1256   1.403       .  A
C1255      H1259   1.080       .  S
C1256      C1257   1.413       .  A
C1256      C1721   1.504       .  S
C1257      H1260   1.080       .  S
C1261      C1262   1.404       .  A
C1261      C1266   1.408       .  A
C1261      C1315   1.489       .  S
C1262      C1263   1.401       .  A
C1262      H1267   1.084       .  S
C1263      C1264   1.405       .  A
C1263      C1861   1.488       .  S
C1264      C1265   1.410       .  A
C1264      H1268   1.082       .  S
C1265      C1266   1.411       .  A
C1265      C1651   1.503       .  S
C1266      H1269   1.083       .  S
C1270      C1271   1.415       .  A
C1270      C1275   1.409       .  A
C1270      C1410   1.503       .  S
C1271      C1272   1.414       .  A
C1271      H1276   1.081       .  S
C1272      C1273   1.408       .  A
C1272      C1931   1.503       .  S
C1273      C1274   1.399       .  A
C1273      H1277   1.083       .  S
C1274      C1275   1.400       .  A
C1274      C1805   1.486       .  S
C1275      H1278   1.083       .  S
C1279      C1280   1.405       .  A
C1279      C1284   1.408       .  A
C1279      C1903   1.496       .  S
C1280      C1281   1.403       .  A
C1280      H1285   1.083       .  S
C1281      C1282   1.404       .  A
C1281      C1847   1.486       .  S
C1282      C1283   1.408       .  A
C1282      H1286   1.082       .  S
C1283      C1284   1.409       .  A
C1283      C1665   1.499       .  S
C1284      H1287   1.082       .  S
C1288      C1289   1.401       .  A
C1288      C1293   1.407       .  A
C1288      C1788   1.485       .  S
C1289      C1290   1.398       .  A
C1289      H1294   1.084       .  S
C1290      C1291   1.401       .  A
C1290      C1914   1.477       .  S
C1291      C1292   1.411       .  A
C1291      H1295   1.082       .  S
C1292      C1293   1.412       .  A
C1292      C1637   1.505       .  S
C1293      H1296   1.081       .  S
C1297      C1298   1.403       .  A
C1297      C1302   1.405       .  A
C1297      H1304   1.083       .  S
C1298      C1299   1.415       .  A
C1299      C1300   1.404       .  A
C1299      N1306   1.437       .  S
C1300      C1301   1.402       .  A
C1300      H1305   1.084       .  S
C1301      C1302   1.415       .  A
C1302      N1303   1.442       .  S
N1303      O1307   1.263       .  A
N1303      O1308   1.263       .  A
N1306      O1309   1.261       .  A
N1306      O1310   1.263       .  A
C1311      C1312   1.402       .  A
C1311      C1316   1.405       .  A
C1311      H1318   1.084       .  S
C1312      C1313   1.416       .  A
C1313      C1314   1.406       .  A
C1313      N1320   1.442       .  S
C1314      C1315   1.405       .  A
C1314      H1319   1.084       .  S
C1315      C1316   1.417       .  A
C1316      N1317   1.439       .  S
N1317      O1321   1.263       .  A
N1317      O1322   1.263       .  A
N1320      O1323   1.261       .  A
N1320      O1324   1.263       .  A
C1325      C1326   1.405       .  A
C1325      C1330   1.400   1_655  A
C1325      H1332   1.083       .  S
C1326      C1327   1.417   1_655  A
C1327      C1328   1.407       .  A
C1327      N1334   1.438   1_545  S
C1328      C1329   1.408       .  A
C1328      H1333   1.082       .  S
C1329      C1330   1.416       .  A
C1330      N1331   1.433       .  S
N1331      O1335   1.262   1_455  A
N1331      O1336   1.263       .  A
N1334      O1337   1.263   1_455  A
N1334      O1338   1.263       .  A
C1339      C1340   1.402       .  A
C1339      C1344   1.404       .  A
C1339      H1346   1.084       .  S
C1340      C1341   1.415   1_655  A
C1341      C1342   1.405       .  A
C1341      N1348   1.440       .  S
C1342      C1343   1.403       .  A
C1342      H1347   1.084       .  S
C1343      C1344   1.414   1_455  A
C1344      N1345   1.440       .  S
N1345      O1349   1.263       .  A
N1345      O1350   1.263       .  A
N1348      O1351   1.262       .  A
N1348      O1352   1.263       .  A
C1353      C1354   1.406       .  A
C1353      C1358   1.405   1_655  A
C1353      H1360   1.083       .  S
C1354      C1355   1.417   1_655  A
C1355      C1356   1.401       .  A
C1355      N1362   1.435       .  S
C1356      C1357   1.405       .  A
C1356      H1361   1.083       .  S
C1357      C1358   1.418       .  A
C1358      N1359   1.437       .  S
N1359      O1363   1.263       .  A
N1359      O1364   1.263   1_455  A
N1362      O1365   1.263       .  A
N1362      O1366   1.263       .  A
C1367      C1368   1.407       .  A
C1367      C1372   1.401       .  A
C1367      H1374   1.083       .  S
C1368      C1369   1.420       .  A
C1369      C1370   1.406       .  A
C1369      N1376   1.436       .  S
C1370      C1371   1.404       .  A
C1370      H1375   1.083       .  S
C1371      C1372   1.415       .  A
C1372      N1373   1.435       .  S
N1373      O1377   1.263       .  A
N1373      O1378   1.262       .  A
N1376      O1379   1.262       .  A
N1376      O1380   1.263       .  A
C1381      C1382   1.408       .  A
C1381      C1386   1.404       .  A
C1381      H1388   1.082       .  S
C1382      C1383   1.416       .  A
C1383      C1384   1.402       .  A
C1383      N1390   1.435       .  S
C1384      C1385   1.405       .  A
C1384      H1389   1.082       .  S
C1385      C1386   1.413       .  A
C1386      N1387   1.436       .  S
N1387      O1391   1.263       .  A
N1387      O1392   1.262       .  A
N1390      O1393   1.262       .  A
N1390      O1394   1.263       .  A
C1395      C1396   1.409   1_655  A
C1395      C1400   1.408       .  A
C1395      H1402   1.082       .  S
C1396      C1397   1.420       .  A
C1397      C1398   1.401       .  A
C1397      N1404   1.436       .  S
C1398      C1399   1.398   1_455  A
C1398      H1403   1.084       .  S
C1399      C1400   1.414       .  A
C1400      N1401   1.444       .  S
N1401      O1405   1.263       .  A
N1401      O1406   1.262       .  A
N1404      O1407   1.263       .  A
N1404      O1408   1.262       .  A
C1409      C1410   1.411       .  A
C1409      C1414   1.409       .  A
C1409      H1416   1.082       .  S
C1410      C1411   1.417       .  A
C1411      C1412   1.401       .  A
C1411      N1418   1.430       .  S
C1412      C1413   1.398       .  A
C1412      H1417   1.084       .  S
C1413      C1414   1.415       .  A
C1414      N1415   1.445       .  S
N1415      O1419   1.263       .  A
N1415      O1420   1.262       .  A
N1418      O1421   1.263       .  A
N1418      O1422   1.261       .  A
C1423      C1424   1.399       .  A
C1423      C1428   1.403       .  A
C1423      H1430   1.084       .  S
C1424      C1425   1.414       .  A
C1425      C1426   1.406       .  A
C1425      N1432   1.442       .  S
C1426      C1427   1.407       .  A
C1426      H1431   1.083       .  S
C1427      C1428   1.421       .  A
C1428      N1429   1.437       .  S
N1429      O1433   1.263       .  A
N1429      O1434   1.263       .  A
N1432      O1435   1.262       .  A
N1432      O1436   1.263       .  A
C1437      C1438   1.409   1_655  A
C1437      C1442   1.403       .  A
C1437      H1444   1.080       .  S
C1438      C1439   1.422       .  A
C1439      C1440   1.403       .  A
C1439      N1446   1.430       .  S
C1440      C1441   1.400   1_455  A
C1440      H1445   1.084       .  S
C1441      C1442   1.414       .  A
C1442      N1443   1.438   1_554  S
N1443      O1447   1.263       .  A
N1443      O1448   1.261   1_556  A
N1446      O1449   1.262       .  A
N1446      O1450   1.262       .  A
C1451      C1452   1.399   1_656  A
C1451      C1456   1.404   1_655  A
C1451      H1458   1.084       .  S
C1452      C1453   1.410       .  A
C1453      C1454   1.404       .  A
C1453      N1460   1.440       .  S
C1454      C1455   1.413   1_554  A
C1454      H1459   1.081       .  S
C1455      C1456   1.424       .  A
C1456      N1457   1.436       .  S
N1457      O1461   1.263   1_455  A
N1457      O1462   1.262       .  A
N1460      O1463   1.262       .  A
N1460      O1464   1.263       .  A
C1465      C1466   1.405       .  A
C1465      C1470   1.407       .  A
C1465      H1472   1.083       .  S
C1466      C1467   1.415   1_556  A
C1467      C1468   1.403       .  A
C1467      N1474   1.436       .  S
C1468      C1469   1.401       .  A
C1468      H1473   1.084       .  S
C1469      C1470   1.417   1_554  A
C1470      N1471   1.445       .  S
N1471      O1475   1.263       .  A
N1471      O1476   1.262       .  A
N1474      O1477   1.263       .  A
N1474      O1478   1.262       .  A
C1479      C1480   1.410       .  A
C1479      C1484   1.412       .  A
C1479      H1486   1.080       .  S
C1480      C1481   1.418       .  A
C1481      C1482   1.399       .  A
C1481      N1488   1.431       .  S
C1482      C1483   1.401       .  A
C1482      H1487   1.085       .  S
C1483      C1484   1.422       .  A
C1484      N1485   1.449       .  S
N1485      O1489   1.263       .  A
N1485      O1490   1.261       .  A
N1488      O1491   1.262       .  A
N1488      O1492   1.263       .  A
C1493      C1494   1.408       .  A
C1493      C1498   1.410       .  A
C1493      H1500   1.083       .  S
C1494      C1495   1.416       .  A
C1495      C1496   1.401       .  A
C1495      N1502   1.436       .  S
C1496      C1497   1.401       .  A
C1496      H1501   1.085       .  S
C1497      C1498   1.416       .  A
C1498      N1499   1.445       .  S
N1499      O1503   1.263       .  A
N1499      O1504   1.262       .  A
N1502      O1505   1.263       .  A
N1502      O1506   1.262       .  A
C1507      C1508   1.400       .  A
C1507      C1512   1.404       .  A
C1507      H1514   1.084       .  S
C1508      C1509   1.414       .  A
C1509      C1510   1.405   1_554  A
C1509      N1516   1.442   1_554  S
C1510      C1511   1.407       .  A
C1510      H1515   1.083       .  S
C1511      C1512   1.418   1_556  A
C1512      N1513   1.435       .  S
N1513      O1517   1.263       .  A
N1513      O1518   1.263       .  A
N1516      O1519   1.263       .  A
N1516      O1520   1.263       .  A
C1521      C1522   1.409   1_554  A
C1521      C1526   1.404       .  A
C1521      H1528   1.082   1_545  S
C1522      C1523   1.420       .  A
C1523      C1524   1.404   1_556  A
C1523      N1530   1.436       .  S
C1524      C1525   1.400       .  A
C1524      H1529   1.084   1_554  S
C1525      C1526   1.413       .  A
C1526      N1527   1.442       .  S
N1527      O1531   1.263   1_545  A
N1527      O1532   1.262       .  A
N1530      O1533   1.263       .  A
N1530      O1534   1.262       .  A
C1535      C1536   1.409       .  A
C1535      C1540   1.406       .  A
C1535      H1542   1.081       .  S
C1536      C1537   1.418   1_554  A
C1537      C1538   1.399       .  A
C1537      N1544   1.427       .  S
C1538      C1539   1.400   1_556  A
C1538      H1543   1.085       .  S
C1539      C1540   1.416       .  A
C1540      N1541   1.441       .  S
N1541      O1545   1.263   1_545  A
N1541      O1546   1.261       .  A
N1544      O1547   1.262       .  A
N1544      O1548   1.262       .  A
C1549      C1550   1.399       .  A
C1549      C1554   1.405       .  A
C1549      H1556   1.084       .  S
C1550      C1551   1.412       .  A
C1551      C1552   1.404       .  A
C1551      N1558   1.440       .  S
C1552      C1553   1.410       .  A
C1552      H1557   1.082       .  S
C1553      C1554   1.423       .  A
C1554      N1555   1.436       .  S
N1555      O1559   1.263       .  A
N1555      O1560   1.263       .  A
N1558      O1561   1.262       .  A
N1558      O1562   1.263       .  A
C1563      C1564   1.398       .  A
C1563      C1568   1.404       .  A
C1563      H1570   1.084       .  S
C1564      C1565   1.410       .  A
C1565      C1566   1.406       .  A
C1565      N1572   1.440       .  S
C1566      C1567   1.416       .  A
C1566      H1571   1.080       .  S
C1567      C1568   1.426       .  A
C1568      N1569   1.433       .  S
N1569      O1573   1.263       .  A
N1569      O1574   1.262       .  A
N1572      O1575   1.262       .  A
N1572      O1576   1.263       .  A
C1577      C1578   1.406       .  A
C1577      C1582   1.403       .  A
C1577      H1584   1.082       .  S
C1578      C1579   1.417       .  A
C1579      C1580   1.405       .  A
C1579      N1586   1.436       .  S
C1580      C1581   1.406       .  A
C1580      H1585   1.084       .  S
C1581      C1582   1.417       .  A
C1582      N1583   1.438       .  S
N1583      O1587   1.263       .  A
N1583      O1588   1.263       .  A
N1586      O1589   1.263   1_545  A
N1586      O1590   1.263       .  A
C1591      C1592   1.401       .  A
C1591      C1596   1.404       .  A
C1591      H1598   1.084       .  S
C1592      C1593   1.417       .  A
C1593      C1594   1.406       .  A
C1593      N1600   1.442   1_545  S
C1594      C1595   1.404       .  A
C1594      H1599   1.084       .  S
C1595      C1596   1.416       .  A
C1596      N1597   1.440       .  S
N1597      O1601   1.263       .  A
N1597      O1602   1.263       .  A
N1600      O1603   1.262       .  A
N1600      O1604   1.263       .  A
C1605      C1606   1.401       .  A
C1605      C1610   1.404       .  A
C1605      H1612   1.084       .  S
C1606      C1607   1.417       .  A
C1607      C1608   1.406       .  A
C1607      N1614   1.443       .  S
C1608      C1609   1.404       .  A
C1608      H1613   1.084       .  S
C1609      C1610   1.416       .  A
C1610      N1611   1.440       .  S
N1611      O1615   1.263       .  A
N1611      O1616   1.263       .  A
N1614      O1617   1.262       .  A
N1614      O1618   1.263       .  A
C1619      C1620   1.397       .  A
C1619      C1624   1.401       .  A
C1619      H1626   1.087       .  S
C1620      C1621   1.410       .  A
C1621      C1622   1.406       .  A
C1621      N1628   1.439       .  S
C1622      C1623   1.415       .  A
C1622      H1627   1.083       .  S
C1623      C1624   1.428       .  A
C1624      N1625   1.433       .  S
N1625      O1629   1.263       .  A
N1625      O1630   1.262       .  A
N1628      O1631   1.262       .  A
N1628      O1632   1.263       .  A
C1633      C1634   1.397       .  A
C1633      C1638   1.403       .  A
C1633      H1640   1.084       .  S
C1634      C1635   1.411       .  A
C1635      C1636   1.403       .  A
C1635      N1642   1.440       .  S
C1636      C1637   1.411       .  A
C1636      H1641   1.081       .  S
C1637      C1638   1.422       .  A
C1638      N1639   1.432       .  S
N1639      O1643   1.263       .  A
N1639      O1644   1.261       .  A
N1642      O1645   1.262       .  A
N1642      O1646   1.263       .  A
C1647      C1648   1.403       .  A
C1647      C1652   1.398       .  A
C1647      H1654   1.082       .  S
C1648      C1649   1.417       .  A
C1649      C1650   1.409       .  A
C1649      N1656   1.435       .  S
C1650      C1651   1.410       .  A
C1650      H1655   1.082       .  S
C1651      C1652   1.416       .  A
C1652      N1653   1.430       .  S
N1653      O1657   1.261       .  A
N1653      O1658   1.263       .  A
N1656      O1659   1.263       .  A
N1656      O1660   1.262       .  A
C1661      C1662   1.399       .  A
C1661      C1666   1.402       .  A
C1661      H1668   1.084       .  S
C1662      C1663   1.413       .  A
C1663      C1664   1.406       .  A
C1663      N1670   1.443       .  S
C1664      C1665   1.410       .  A
C1664      H1669   1.082       .  S
C1665      C1666   1.420       .  A
C1666      N1667   1.437       .  S
N1667      O1671   1.263       .  A
N1667      O1672   1.263       .  A
N1670      O1673   1.262       .  A
N1670      O1674   1.263       .  A
C1675      C1676   1.406       .  A
C1675      C1680   1.404       .  A
C1675      H1682   1.082       .  S
C1676      C1677   1.416       .  A
C1677      C1678   1.405       .  A
C1677      N1684   1.436       .  S
C1678      C1679   1.409       .  A
C1678      H1683   1.082       .  S
C1679      C1680   1.419       .  A
C1680      N1681   1.436       .  S
N1681      O1685   1.262       .  A
N1681      O1686   1.263       .  A
N1684      O1687   1.263       .  A
N1684      O1688   1.263       .  A
C1689      C1690   1.403   1_455  A
C1689      C1694   1.401       .  A
C1689      H1696   1.083       .  S
C1690      C1691   1.417       .  A
C1691      C1692   1.403       .  A
C1691      N1698   1.435       .  S
C1692      C1693   1.407   1_655  A
C1692      H1697   1.083       .  S
C1693      C1694   1.417       .  A
C1694      N1695   1.432       .  S
N1695      O1699   1.261       .  A
N1695      O1700   1.262       .  A
N1698      O1701   1.263       .  A
N1698      O1702   1.262       .  A
C1703      C1704   1.405       .  A
C1703      C1708   1.404       .  A
C1703      H1710   1.084       .  S
C1704      C1705   1.414       .  A
C1705      C1706   1.403       .  A
C1705      N1712   1.437       .  S
C1706      C1707   1.401   1_655  A
C1706      H1711   1.084   1_655  S
C1707      C1708   1.414   1_455  A
C1708      N1709   1.442   1_655  S
N1709      O1713   1.263       .  A
N1709      O1714   1.262   1_455  A
N1712      O1715   1.263       .  A
N1712      O1716   1.262       .  A
C1717      C1718   1.403       .  A
C1717      C1722   1.404       .  A
C1717      H1724   1.083       .  S
C1718      C1719   1.415       .  A
C1719      C1720   1.403       .  A
C1719      N1726   1.436       .  S
C1720      C1721   1.409       .  A
C1720      H1725   1.082       .  S
C1721      C1722   1.422       .  A
C1722      N1723   1.434       .  S
N1723      O1727   1.262       .  A
N1723      O1728   1.263       .  A
N1726      O1729   1.263       .  A
N1726      O1730   1.263       .  A
C1731      C1732   1.403       .  A
C1731      C1736   1.407       .  A
C1731      H1738   1.084       .  S
C1732      C1733   1.414       .  A
C1733      C1734   1.403       .  A
C1733      N1740   1.436       .  S
C1734      C1735   1.402       .  A
C1734      H1739   1.084       .  S
C1735      C1736   1.416       .  A
C1736      N1737   1.442       .  S
N1737      O1741   1.263       .  A
N1737      O1742   1.263       .  A
N1740      O1743   1.261       .  A
N1740      O1744   1.262       .  A
C1745      C1746   1.403       .  A
C1745      C1750   1.407       .  A
C1745      H1752   1.084       .  S
C1746      C1747   1.410       .  A
C1747      C1748   1.401       .  A
C1747      N1754   1.430       .  S
C1748      C1749   1.401       .  A
C1748      H1753   1.084       .  S
C1749      C1750   1.417       .  A
C1750      N1751   1.441       .  S
N1751      O1755   1.263       .  A
N1751      O1756   1.263       .  A
N1754      O1757   1.262       .  A
N1754      O1758   1.262       .  A
C1759      C1760   1.400       .  A
C1759      C1764   1.403       .  A
C1759      H1766   1.084       .  S
C1760      C1761   1.416       .  A
C1761      C1762   1.406       .  A
C1761      N1768   1.443   1_545  S
C1762      C1763   1.405       .  A
C1762      H1767   1.083       .  S
C1763      C1764   1.417       .  A
C1764      N1765   1.437       .  S
N1765      O1769   1.263       .  A
N1765      O1770   1.263       .  A
N1768      O1771   1.262       .  A
N1768      O1772   1.263       .  A
C1773      C1774   1.406       .  A
C1773      C1778   1.410       .  A
C1773      H1780   1.082       .  S
C1774      C1775   1.417       .  A
C1775      C1776   1.399       .  A
C1775      N1782   1.430       .  S
C1776      C1777   1.399       .  A
C1776      H1781   1.084       .  S
C1777      C1778   1.422       .  A
C1778      N1779   1.448       .  S
N1779      O1783   1.263       .  A
N1779      O1784   1.262       .  A
N1782      O1785   1.262       .  A
N1782      O1786   1.262       .  A
C1787      C1788   1.402       .  A
C1787      C1792   1.404       .  A
C1787      H1794   1.084       .  S
C1788      C1789   1.412       .  A
C1789      C1790   1.401       .  A
C1789      N1796   1.437       .  S
C1790      C1791   1.408       .  A
C1790      H1795   1.080       .  S
C1791      C1792   1.420       .  A
C1792      N1793   1.432       .  S
N1793      O1797   1.262       .  A
N1793      O1798   1.263       .  A
N1796      O1799   1.263       .  A
N1796      O1800   1.263       .  A
C1801      C1802   1.401       .  A
C1801      C1806   1.404       .  A
C1801      H1808   1.084       .  S
C1802      C1803   1.416       .  A
C1803      C1804   1.407       .  A
C1803      N1810   1.441       .  S
C1804      C1805   1.403       .  A
C1804      H1809   1.084       .  S
C1805      C1806   1.418       .  A
C1806      N1807   1.440       .  S
N1807      O1811   1.263       .  A
N1807      O1812   1.263       .  A
N1810      O1813   1.262       .  A
N1810      O1814   1.263       .  A
C1815      C1816   1.402       .  A
C1815      C1820   1.406       .  A
C1815      H1822   1.084       .  S
C1816      C1817   1.413       .  A
C1817      C1818   1.403       .  A
C1817      N1824   1.442       .  S
C1818      C1819   1.406       .  A
C1818      H1823   1.083       .  S
C1819      C1820   1.418       .  A
C1820      N1821   1.439       .  S
N1821      O1825   1.263       .  A
N1821      O1826   1.263       .  A
N1824      O1827   1.262       .  A
N1824      O1828   1.263       .  A
C1829      C1830   1.402       .  A
C1829      C1834   1.406       .  A
C1829      H1836   1.084       .  S
C1830      C1831   1.415       .  A
C1831      C1832   1.405       .  A
C1831      N1838   1.442       .  S
C1832      C1833   1.404       .  A
C1832      H1837   1.083       .  S
C1833      C1834   1.416       .  A
C1834      N1835   1.439       .  S
N1835      O1839   1.263       .  A
N1835      O1840   1.262       .  A
N1838      O1841   1.262       .  A
N1838      O1842   1.263       .  A
C1843      C1844   1.403       .  A
C1843      C1848   1.406       .  A
C1843      H1850   1.084       .  S
C1844      C1845   1.414       .  A
C1845      C1846   1.403       .  A
C1845      N1852   1.439       .  S
C1846      C1847   1.404       .  A
C1846      H1851   1.083       .  S
C1847      C1848   1.417       .  A
C1848      N1849   1.440       .  S
N1849      O1853   1.263       .  A
N1849      O1854   1.263       .  A
N1852      O1855   1.261       .  A
N1852      O1856   1.263       .  A
C1857      C1858   1.399       .  A
C1857      C1862   1.402       .  A
C1857      H1864   1.084       .  S
C1858      C1859   1.416       .  A
C1859      C1860   1.407       .  A
C1859      N1866   1.442       .  S
C1860      C1861   1.405       .  A
C1860      H1865   1.083       .  S
C1861      C1862   1.415       .  A
C1862      N1863   1.436       .  S
N1863      O1867   1.263       .  A
N1863      O1868   1.262       .  A
N1866      O1869   1.262       .  A
N1866      O1870   1.263       .  A
C1871      C1872   1.400       .  A
C1871      C1876   1.406       .  A
C1871      H1878   1.084       .  S
C1872      C1873   1.411       .  A
C1873      C1874   1.403       .  A
C1873      N1880   1.441       .  S
C1874      C1875   1.409       .  A
C1874      H1879   1.082       .  S
C1875      C1876   1.422       .  A
C1876      N1877   1.438       .  S
N1877      O1881   1.263       .  A
N1877      O1882   1.263       .  A
N1880      O1883   1.262       .  A
N1880      O1884   1.263       .  A
C1885      C1886   1.400       .  A
C1885      C1890   1.401       .  A
C1885      H1892   1.084       .  S
C1886      C1887   1.416       .  A
C1887      C1888   1.406       .  A
C1887      N1894   1.443       .  S
C1888      C1889   1.404       .  A
C1888      H1893   1.084       .  S
C1889      C1890   1.413       .  A
C1890      N1891   1.435       .  S
N1891      O1895   1.263       .  A
N1891      O1896   1.262       .  A
N1894      O1897   1.262       .  A
N1894      O1898   1.263       .  A
C1899      C1900   1.399       .  A
C1899      C1904   1.404       .  A
C1899      H1906   1.084       .  S
C1900      C1901   1.413       .  A
C1901      C1902   1.404       .  A
C1901      N1908   1.442       .  S
C1902      C1903   1.408       .  A
C1902      H1907   1.083       .  S
C1903      C1904   1.420       .  A
C1904      N1905   1.438       .  S
N1905      O1909   1.263       .  A
N1905      O1910   1.263       .  A
N1908      O1911   1.262       .  A
N1908      O1912   1.263       .  A
C1913      C1914   1.399       .  A
C1913      C1918   1.404       .  A
C1913      H1920   1.084       .  S
C1914      C1915   1.414       .  A
C1915      C1916   1.404       .  A
C1915      N1922   1.441       .  S
C1916      C1917   1.407       .  A
C1916      H1921   1.082       .  S
C1917      C1918   1.420       .  A
C1918      N1919   1.436       .  S
N1919      O1923   1.263       .  A
N1919      O1924   1.263       .  A
N1922      O1925   1.263       .  A
N1922      O1926   1.263       .  A
C1927      C1928   1.404       .  A
C1927      C1932   1.404       .  A
C1927      H1934   1.083       .  S
C1928      C1929   1.417       .  A
C1929      C1930   1.403       .  A
C1929      N1936   1.437       .  S
C1930      C1931   1.409       .  A
C1930      H1935   1.083       .  S
C1931      C1932   1.417       .  A
C1932      N1933   1.430       .  S
N1933      O1937   1.261       .  A
N1933      O1938   1.262       .  A
N1936      O1939   1.263       .  A
N1936      O1940   1.263       .  A
C1941      C1942   1.407       .  A
C1941      C1946   1.408       .  A
C1941      H1948   1.082       .  S
C1942      C1943   1.417   1_554  A
C1943      C1944   1.401   1_556  A
C1943      N1950   1.434       .  S
C1944      C1945   1.400       .  A
C1944      H1949   1.084   1_554  S
C1945      C1946   1.419       .  A
C1946      N1947   1.445       .  S
N1947      O1951   1.263       .  A
N1947      O1952   1.261       .  A
N1950      O1953   1.263       .  A
N1950      O1954   1.262       .  A
C1955      C1956   1.403   1_556  A
C1955      C1960   1.407       .  A
C1955      H1962   1.084       .  S
C1956      C1957   1.413       .  A
C1957      C1958   1.401   1_554  A
C1957      N1964   1.435       .  S
C1958      C1959   1.403       .  A
C1958      H1963   1.084       .  S
C1959      C1960   1.417       .  A
C1960      N1961   1.441       .  S
N1961      O1965   1.263       .  A
N1961      O1966   1.263       .  A
N1964      O1967   1.261       .  A
N1964      O1968   1.262       .  A
