geometry optimzed in LAMMPS
_audit_creation_date              2020-11-30 
_audit_creation_method            'lammps2cif' 
_symmetry_space_group_name_H-M    'P1' 
_symmetry_Int_Tables_number       1 
_symmetry_cell_setting            triclinic 
loop_ 
_symmetry_equiv_pos_as_xyz 
  x,y,z 
_cell_length_a                    82.17965562 
_cell_length_b                    82.42574982086737 
_cell_length_c                    83.7607699681897 
_cell_angle_alpha                 89.97324936555844 
_cell_angle_beta                  89.89081393843038 
_cell_angle_gamma                 90.09140607514982 
loop_ 
_atom_site_label 
_atom_site_type_symbol 
_atom_site_fract_x 
_atom_site_fract_y 
_atom_site_fract_z 
_atom_site_charge 
C1          C  0.17862750  0.18502677  0.48457485     0.03000
C2          C  0.19088052  0.17283233  0.48549870     0.03000
C3          C  0.19550888  0.16704055  0.50074884    -0.17500
C4          C  0.18975657  0.17383143  0.51512419     0.03000
C5          C  0.17813993  0.18660228  0.51416539     0.03000
C6          C  0.17247209  0.19137991  0.49896871    -0.17500
H7          H  0.16325914  0.20074091  0.49828835     0.05000
H8          H  0.20449411  0.15747171  0.50146211     0.05000
C9          C  0.18896486  0.49882226  0.16026239     0.03000
C10         C  0.17780199  0.49804623  0.17320631     0.03000
C11         C  0.17184705  0.51263963  0.17967187    -0.17500
C12         C  0.17671702  0.52803936  0.17408617     0.03000
C13         C  0.18814894  0.52875769  0.16126111     0.03000
C14         C  0.19362299  0.51418915  0.15444280    -0.17500
H15         H  0.20197171  0.51493362  0.14443261     0.05000
H16         H  0.16385660  0.51194487  0.18995520     0.05000
C17         C  0.49449634  0.16744456  0.16920955     0.03000
C18         C  0.49512774  0.18021644  0.15777612     0.03000
C19         C  0.51054079  0.18560020  0.15256084    -0.17500
C20         C  0.52530798  0.17943071  0.15878536     0.03000
C21         C  0.52475226  0.16645936  0.17009515     0.03000
C22         C  0.50924672  0.16031560  0.17420322    -0.17500
H23         H  0.50850919  0.14958314  0.18157779     0.05000
H24         H  0.51104620  0.19569447  0.14426133     0.05000
C25         C  0.18889910  0.84825226  0.48661989     0.03000
C26         C  0.17711483  0.83561220  0.48662504     0.03000
C27         C  0.17100615  0.83023378  0.50142897    -0.17500
C28         C  0.17647510  0.83640229  0.51619262     0.03000
C29         C  0.18840065  0.84897849  0.51619420     0.03000
C30         C  0.19401147  0.85482721  0.50132194    -0.17500
H31         H  0.20300365  0.86445123  0.50114817     0.05000
H32         H  0.16199434  0.82064134  0.50147708     0.05000
C33         C  0.84561565  0.17241538  0.48241649     0.03000
C34         C  0.85756609  0.18501135  0.48198259     0.03000
C35         C  0.86419049  0.19045580  0.49661650    -0.17500
C36         C  0.85887882  0.18481982  0.51165375     0.03000
C37         C  0.84733541  0.17191670  0.51200025     0.03000
C38         C  0.84126741  0.16585247  0.49740581    -0.17500
H39         H  0.83184364  0.15665466  0.49781640     0.05000
H40         H  0.87387190  0.19936486  0.49633809     0.05000
C41         C  0.85277093  0.83070408  0.48552494     0.03000
C42         C  0.84122416  0.84343725  0.48592980     0.03000
C43         C  0.83710472  0.85050133  0.50062141    -0.17500
C44         C  0.84309291  0.84468583  0.51529517     0.03000
C45         C  0.85385099  0.83114492  0.51502589     0.03000
C46         C  0.85899434  0.82499312  0.50012446    -0.17500
H47         H  0.86737017  0.81484340  0.49996840     0.05000
H48         H  0.82806693  0.86007323  0.50059887     0.05000
C49         C  0.49639447  0.17559066  0.82432621     0.03000
C50         C  0.49644677  0.18779661  0.83632492     0.03000
C51         C  0.51171955  0.19332109  0.84197720    -0.17500
C52         C  0.52671466  0.18774331  0.83564595     0.03000
C53         C  0.52643124  0.17519191  0.82392186     0.03000
C54         C  0.51117785  0.16906588  0.81910123    -0.17500
H55         H  0.51060743  0.15928637  0.81047901     0.05000
H56         H  0.51198946  0.20315361  0.85054427     0.05000
C57         C  0.16694498  0.50031603  0.83401224     0.03000
C58         C  0.17622800  0.50006269  0.84831761     0.03000
C59         C  0.18081362  0.51503147  0.85519557    -0.17500
C60         C  0.17871666  0.53016838  0.84748941     0.03000
C61         C  0.16953079  0.53016610  0.83304207     0.03000
C62         C  0.16342362  0.51540368  0.82701434    -0.17500
H63         H  0.15675906  0.51558104  0.81584251     0.05000
H64         H  0.18640349  0.51465031  0.86682692     0.05000
C65         C  0.49965159  0.85088457  0.15463751     0.03000
C66         C  0.49988715  0.86176044  0.16779035     0.03000
C67         C  0.51504889  0.86714480  0.17360588    -0.17500
C68         C  0.52992387  0.86131537  0.16755821     0.03000
C69         C  0.52972579  0.85047413  0.15429400     0.03000
C70         C  0.51449271  0.84612905  0.14772780    -0.17500
H71         H  0.51404818  0.83806711  0.13754104     0.05000
H72         H  0.51533022  0.87549526  0.18358869     0.05000
C73         C  0.83524260  0.49794102  0.16313404     0.03000
C74         C  0.84767422  0.49778662  0.17492490     0.03000
C75         C  0.85344028  0.51286750  0.18051647    -0.17500
C76         C  0.84708179  0.52779276  0.17520806     0.03000
C77         C  0.83493427  0.52793283  0.16309439     0.03000
C78         C  0.82943664  0.51284541  0.15730138    -0.17500
H79         H  0.81957766  0.51250151  0.14874146     0.05000
H80         H  0.86236813  0.51308403  0.19002711     0.05000
C81         C  0.85869381  0.49639520  0.83610620     0.03000
C82         C  0.84710030  0.49559361  0.84869389     0.03000
C83         C  0.84261491  0.51012282  0.85652914    -0.17500
C84         C  0.84852526  0.52559207  0.85191398     0.03000
C85         C  0.86014428  0.52620303  0.83923912     0.03000
C86         C  0.86513422  0.51164566  0.83195865    -0.17500
H87         H  0.87401322  0.51228402  0.82238836     0.05000
H88         H  0.83396292  0.50929591  0.86622373     0.05000
C89         C  0.50514304  0.83907214  0.83441762     0.03000
C90         C  0.50457751  0.85046921  0.82165796     0.03000
C91         C  0.51936355  0.85680266  0.81585424    -0.17500
C92         C  0.53470985  0.85219960  0.82188245     0.03000
C93         C  0.53536492  0.84103262  0.83492079     0.03000
C94         C  0.52045720  0.83483259  0.84089018    -0.17500
H95         H  0.52080115  0.82569480  0.85017492     0.05000
H96         H  0.51892554  0.86586902  0.80648904     0.05000
C97         C  0.63165103  0.79427323  0.88885077     0.80900
N98         N  0.63336800  0.78346517  0.90129791    -0.77400
C99         C  0.64870090  0.77881276  0.90602518     0.83400
N100        N  0.66179884  0.78510904  0.89838748    -0.77300
C101        C  0.66025281  0.79572203  0.88624520     0.83500
N102        N  0.64519096  0.80014059  0.88142935    -0.79000
C103        C  0.79257889  0.61858484  0.90017537     0.80900
N104        N  0.79504408  0.63086178  0.88959011    -0.77400
C105        C  0.78670835  0.64496298  0.89091399     0.83400
N106        N  0.77587824  0.64683888  0.90293911    -0.77300
C107        C  0.77323126  0.63487315  0.91368540     0.83500
N108        N  0.78158939  0.62057776  0.91235591    -0.79000
C109        C  0.92334141  0.62175558  0.74937156     0.80900
N110        N  0.92053464  0.60853972  0.75899337    -0.77400
C111        C  0.90831253  0.60917994  0.77014176     0.83400
N112        N  0.89969537  0.62305846  0.77187900    -0.77300
C113        C  0.90269726  0.63618973  0.76271136     0.83500
N114        N  0.91436763  0.63542915  0.75133901    -0.79000
C115        C  0.91276293  0.74063110  0.61246917     0.80900
N116        N  0.91197001  0.74935568  0.59852299    -0.77400
C117        C  0.89780953  0.75727629  0.59467373     0.83400
N118        N  0.88474126  0.75618323  0.60451575    -0.77300
C119        C  0.88546785  0.74737050  0.61808736     0.83500
N120        N  0.89944471  0.73976510  0.62198584    -0.79000
C121        C  0.77910834  0.89871981  0.59880646     0.80900
N122        N  0.77912083  0.88896271  0.61180623    -0.77400
C123        C  0.76985692  0.89218171  0.62469576     0.83400
N124        N  0.76020201  0.90545750  0.62469985    -0.77300
C125        C  0.76020617  0.91580800  0.61204794     0.83500
N126        N  0.76982124  0.91254103  0.59897729    -0.79000
C127        C  0.61904270  0.90425251  0.75714295     0.80900
N128        N  0.62178576  0.91822195  0.74853439    -0.77400
C129        C  0.63607894  0.91993386  0.74018728     0.83400
N130        N  0.64687643  0.90755629  0.74011121    -0.77300
C131        C  0.64409748  0.89370532  0.74823892     0.83500
N132        N  0.63025110  0.89213382  0.75688393    -0.79000
O133        O  0.75452325  0.77485784  0.77495121    -0.87600
C134        C  0.78355043  0.80840088  0.75356803     0.88400
Mg135      Mg  0.76299734  0.75990991  0.79428441     1.58100
O136        O  0.77557960  0.77352747  0.73074704    -0.87400
O137        O  0.74326876  0.77298901  0.75134085    -0.74700
C138        C  0.83276315  0.73003059  0.76805991     0.93500
O139        O  0.78351430  0.79572948  0.79011043    -0.74500
O140        O  0.82555385  0.73324528  0.78113466    -0.82000
Mg141      Mg  0.75916928  0.80033658  0.77727085     1.58000
C142        C  0.81328518  0.75041335  0.70789213     0.93400
O143        O  0.73452335  0.80757531  0.76613041    -0.80300
H144        H  0.75965216  0.75837090  0.72059897    -0.05600
C145        C  0.81859073  0.77330808  0.75529060     0.88300
O146        O  0.76718918  0.73862340  0.77706791    -0.74800
O147        O  0.77109303  0.80006526  0.75467356    -0.87500
O148        O  0.80628984  0.76416260  0.70858135    -0.80300
C149        C  0.78022363  0.80967840  0.70729848     0.93500
C150        C  0.72934111  0.81228018  0.75256767     0.93400
Mg151      Mg  0.80284265  0.74226936  0.74405992     1.58000
O152        O  0.82742174  0.73490477  0.75465263    -0.80300
O153        O  0.77853116  0.74710810  0.73151523    -0.74500
O154        O  0.76823330  0.80886425  0.71695541    -0.80400
O155        O  0.74685053  0.80098183  0.80115187    -0.82100
O156        O  0.79468039  0.73369646  0.80393677    -0.80400
C157        C  0.77088373  0.75973654  0.72716198     0.87800
O158        O  0.79129600  0.74275325  0.76678063    -0.87500
O159        O  0.80785983  0.76765053  0.74659831    -0.87600
O160        O  0.81949533  0.76963902  0.76998136    -0.74700
Mg161      Mg  0.75698217  0.79102048  0.73506341     1.58000
O162        O  0.79214141  0.79991540  0.70801957    -0.82100
H163        H  0.73553112  0.76028345  0.77071248    -0.05800
O164        O  0.78711670  0.76939442  0.79063317    -0.87300
H165        H  0.80272096  0.78482028  0.80088193    -0.05600
H166        H  0.77811501  0.72301896  0.76169274    -0.05800
C167        C  0.79152863  0.78325151  0.79429081     0.87800
C168        C  0.74404615  0.76909832  0.76601016     0.88400
C169        C  0.77901351  0.73423428  0.76831967     0.88400
H170        H  0.82715732  0.78195062  0.75035747    -0.05800
O171        O  0.79558273  0.80392086  0.74515141    -0.74800
Mg172      Mg  0.80574319  0.75172860  0.78612190     1.58000
H173        H  0.78444041  0.81950346  0.76037939    -0.05800
C174        C  0.74853441  0.79229578  0.81355493     0.93400
O175        O  0.77175474  0.74367188  0.81424477    -0.82000
C176        C  0.78338683  0.73352195  0.81436107     0.93400
O177        O  0.73700542  0.80932743  0.73968980    -0.82000
Mg178      Mg  0.79987582  0.78296746  0.72766983     1.58200
O179        O  0.75643058  0.77900774  0.81338425    -0.80300
O180        O  0.81472308  0.74128793  0.71999868    -0.82000
C181        C  0.68784249  0.70172663  0.98697720     0.03000
C182        C  0.69995735  0.68942686  0.98769263     0.03000
C183        C  0.70340160  0.68230986  0.00258997    -0.17500
C184        C  0.69660044  0.68780392  0.01698668     0.03000
C185        C  0.68493218  0.70047421  0.01642888     0.03000
C186        C  0.68049283  0.70683586  0.00139520    -0.17500
H187        H  0.67191730  0.71680141  0.00098939     0.05000
H188        H  0.71177644  0.67217360  0.00301129     0.05000
C189        C  0.69686596  0.00397042  0.65950796     0.03000
C190        C  0.68447067  0.00305743  0.67140238     0.03000
C191        C  0.67849663  0.01753392  0.67817212    -0.17500
C192        C  0.68431850  0.03308280  0.67394041     0.03000
C193        C  0.69672887  0.03401533  0.66202121     0.03000
C194        C  0.70234234  0.01956719  0.65488958    -0.17500
H195        H  0.71135567  0.02065439  0.64550167     0.05000
H196        H  0.66963663  0.01650522  0.68771389     0.05000
C197        C  0.00113224  0.67724266  0.66104084     0.03000
C198        C  0.00227845  0.66533391  0.67338398     0.03000
C199        C  0.01786298  0.65902462  0.67694445    -0.17500
C200        C  0.03236967  0.66468958  0.66983724     0.03000
C201        C  0.03119331  0.67695432  0.65798351     0.03000
C202        C  0.01566315  0.68272307  0.65375642    -0.17500
H203        H  0.01493157  0.69203991  0.64465097     0.05000
H204        H  0.01879437  0.64968435  0.68593654     0.05000
C205        C  0.77765922  0.40612188  0.88642600     0.80900
N206        N  0.77040768  0.40299454  0.90092728    -0.77400
C207        C  0.76150404  0.38898471  0.90282515     0.83400
N208        N  0.75988803  0.37865725  0.89035908    -0.77300
C209        C  0.76706071  0.38166880  0.87624690     0.83500
N210        N  0.77592125  0.39530041  0.87435033    -0.79000
C211        C  0.60762334  0.26668132  0.87400713     0.80900
N212        N  0.61193595  0.27110577  0.88922923    -0.77400
C213        C  0.62242052  0.28388673  0.89151222     0.83400
N214        N  0.62864879  0.29179838  0.87865208    -0.77300
C215        C  0.62464358  0.28733487  0.86363680     0.83500
N216        N  0.61415248  0.27485503  0.86144351    -0.79000
C217        C  0.89963418  0.41345486  0.76320613     0.80900
N218        N  0.88527935  0.40704805  0.75834509    -0.77400
C219        C  0.88476591  0.39545985  0.74692274     0.83400
N220        N  0.89881276  0.39024936  0.74019055    -0.77300
C221        C  0.91340389  0.39629671  0.74495471     0.83500
N222        N  0.91386356  0.40807712  0.75650198    -0.79000
C223        C  0.90102509  0.25045856  0.60030936     0.80900
N224        N  0.88784171  0.25121959  0.61009387    -0.77400
C225        C  0.88839963  0.25981297  0.62386014     0.83400
N226        N  0.90232632  0.26744199  0.62797672    -0.77300
C227        C  0.91570041  0.26696521  0.61850060     0.83500
N228        N  0.91502011  0.25861857  0.60434653    -0.79000
C229        C  0.77110370  0.14263185  0.59725227     0.80900
N230        N  0.76597501  0.12712756  0.60048274    -0.77400
C231        C  0.75398149  0.12465675  0.61168677     0.83400
N232        N  0.74727575  0.13755274  0.61936385    -0.77300
C233        C  0.75220456  0.15284466  0.61601708     0.83500
N234        N  0.76407155  0.15519071  0.60508288    -0.79000
C235        C  0.61133290  0.12604012  0.76031214     0.80900
N236        N  0.61863831  0.14063069  0.75852019    -0.77400
C237        C  0.63111064  0.14265506  0.74822945     0.83400
N238        N  0.63669472  0.12976362  0.73981380    -0.77300
C239        C  0.62968740  0.11488199  0.74143368     0.83500
N240        N  0.61662473  0.11305432  0.75151700    -0.79000
O241        O  0.70852346  0.28279113  0.72739143    -0.87600
C242        C  0.74334017  0.28035467  0.76173221     0.88400
Mg243      Mg  0.71106453  0.26715938  0.70700475     1.58100
O244        O  0.74565324  0.31515276  0.73779862    -0.87400
O245        O  0.70780558  0.30856887  0.73380982    -0.74700
C246        C  0.78606271  0.27661801  0.68048945     0.93500
O247        O  0.72992903  0.25214562  0.73953511    -0.74500
O248        O  0.77404178  0.26694113  0.67991441    -0.82000
Mg249      Mg  0.71172193  0.27057324  0.75000406     1.58000
C250        C  0.79065451  0.33056441  0.72055036     0.93400
O251        O  0.69293233  0.28679503  0.76277429    -0.80300
H252        H  0.73591269  0.33576299  0.72962313    -0.05600
C253        C  0.77732294  0.27906761  0.72558778     0.88300
O254        O  0.72162498  0.28845851  0.69212434    -0.74800
O255        O  0.73141142  0.28657128  0.75515245    -0.87500
O256        O  0.78295866  0.32781929  0.73351149    -0.80300
C257        C  0.75731363  0.32137285  0.77842592     0.93500
C258        C  0.69330600  0.29913883  0.77192863     0.93400
Mg259      Mg  0.76746699  0.30531784  0.70228705     1.58000
O260        O  0.78597110  0.28922535  0.68926168    -0.80300
O261        O  0.74987909  0.32378536  0.71346090    -0.74500
O262        O  0.74271295  0.31699539  0.77573935    -0.80400
O263        O  0.69147092  0.25262281  0.74481128    -0.82100
O264        O  0.73661889  0.26042769  0.67686340    -0.80400
C265        C  0.74358916  0.32538750  0.72722194     0.87800
O266        O  0.74776234  0.28931589  0.69732483    -0.87500
O267        O  0.77054451  0.29237210  0.72423052    -0.87600
O268        O  0.77259313  0.26679358  0.71771080    -0.74700
Mg269      Mg  0.72608918  0.31190377  0.75446073     1.58000
O270        O  0.76834527  0.32075223  0.76784444    -0.82100
H271        H  0.69347911  0.29846623  0.71674186    -0.05800
O272        O  0.73470460  0.26088864  0.71537091    -0.87300
H273        H  0.74489683  0.24062716  0.72388994    -0.05600
H274        H  0.73718187  0.30479581  0.68215090    -0.05800
C275        C  0.73683612  0.25076545  0.72603177     0.87800
C276        C  0.70277327  0.29654546  0.72565554     0.88400
C277        C  0.73571922  0.29462109  0.69017751     0.88400
H278        H  0.78714716  0.27773516  0.73404862    -0.05800
O279        O  0.75775494  0.28527010  0.75905514    -0.74800
Mg280      Mg  0.75364142  0.26409510  0.69786088     1.58000
H281        H  0.74149369  0.27009776  0.76957864    -0.05800
C282        C  0.69075655  0.24329920  0.73274592     0.93400
O283        O  0.71430850  0.24924017  0.68646212    -0.82000
C284        C  0.72565327  0.24965836  0.67617813     0.93400
O285        O  0.70528364  0.30891498  0.77208919    -0.82000
Mg286      Mg  0.76915523  0.30652818  0.74521811     1.58200
O287        O  0.69862579  0.24621481  0.71997912    -0.80300
O288        O  0.78815920  0.32236453  0.70795292    -0.82000
C289        C  0.42059512  0.76618501  0.87682612     0.80900
N290        N  0.41582982  0.76139266  0.89184579    -0.77400
C291        C  0.40329669  0.75039103  0.89344237     0.83400
N292        N  0.39601136  0.74428361  0.88016829    -0.77300
C293        C  0.40092740  0.74881386  0.86544043     0.83500
N294        N  0.41303532  0.75972643  0.86396190    -0.79000
C295        C  0.25163318  0.61429606  0.88767290     0.80900
N296        N  0.25761086  0.61944949  0.87344229    -0.77400
C297        C  0.27131347  0.62855139  0.87271807     0.83400
N298        N  0.27901599  0.63273932  0.88635631    -0.77300
C299        C  0.27319690  0.62803353  0.90077995     0.83500
N300        N  0.25946266  0.61858389  0.90150141    -0.79000
C301        C  0.41099436  0.89435950  0.76288167     0.80900
N302        N  0.40811871  0.90810706  0.75414384    -0.77400
C303        C  0.39344497  0.91007931  0.74667427     0.83400
N304        N  0.38194659  0.89832882  0.74793380    -0.77300
C305        C  0.38473140  0.88473177  0.75660345     0.83500
N306        N  0.39923304  0.88283887  0.76405957    -0.79000
C307        C  0.26500102  0.90864746  0.62487365     0.80900
N308        N  0.25705640  0.90818613  0.61049788    -0.77400
C309        C  0.24762907  0.89501969  0.60669205     0.83400
N310        N  0.24679801  0.88228494  0.61690297    -0.77300
C311        C  0.25496866  0.88247401  0.63090478     0.83500
N312        N  0.26388934  0.89570635  0.63487580    -0.79000
C313        C  0.14107081  0.60355807  0.74596270     0.80900
N314        N  0.12620415  0.60838859  0.74032926    -0.77400
C315        C  0.12543892  0.61917411  0.72788163     0.83400
N316        N  0.13941909  0.62489886  0.72127082    -0.77300
C317        C  0.15406924  0.61982856  0.72658091     0.83500
N318        N  0.15476499  0.60928719  0.73889192    -0.79000
C319        C  0.11921092  0.73830328  0.60758037     0.80900
N320        N  0.12077835  0.74986661  0.59583240    -0.77400
C321        C  0.13526846  0.75791112  0.59408698     0.83400
N322        N  0.14748605  0.75468264  0.60435895    -0.77300
C323        C  0.14597807  0.74367121  0.61612956     0.83500
N324        N  0.13183015  0.73536692  0.61770309    -0.79000
O325        O  0.26681516  0.71081376  0.74346244    -0.87600
C326        C  0.31501871  0.71103923  0.73398664     0.88400
Mg327      Mg  0.24944309  0.71721915  0.72571107     1.58100
O328        O  0.30088631  0.74288025  0.75829038    -0.87400
O329        O  0.27385200  0.71742184  0.76770230    -0.74700
C330        C  0.27404075  0.78715454  0.69693984     0.93500
O331        O  0.28482869  0.70297112  0.71045707    -0.74500
O332        O  0.26658925  0.77442860  0.69241914    -0.82000
Mg333      Mg  0.28441361  0.69306828  0.73625741     1.58000
C334        C  0.31595624  0.78974538  0.74995168     0.93400
O335        O  0.28474081  0.68068126  0.76091286    -0.80300
H336        H  0.29011269  0.75027991  0.77841542    -0.05600
C337        C  0.30621274  0.75474094  0.71137226     0.88300
O338        O  0.24630280  0.74257522  0.73653313    -0.74800
O339        O  0.30312222  0.70985427  0.74296648    -0.87500
O340        O  0.32178577  0.77575290  0.75282083    -0.80300
C341        C  0.34042438  0.73034228  0.76972229     0.93500
C342        C  0.29325946  0.68145714  0.77357944     0.93400
Mg343      Mg  0.28405231  0.77383815  0.73346983     1.58000
O344        O  0.28244916  0.78761173  0.70970334    -0.80300
O345        O  0.28410752  0.76341947  0.75882080    -0.74500
O346        O  0.32928937  0.71964281  0.77064213    -0.80400
O347        O  0.26446901  0.67537879  0.72920160    -0.82100
O348        O  0.24017393  0.74677194  0.69725472    -0.80400
C349        C  0.29187868  0.75216631  0.76575205     0.87800
O350        O  0.26588662  0.75693461  0.72588882    -0.87500
O351        O  0.30253472  0.75708250  0.72546716    -0.87600
O352        O  0.29557888  0.75090855  0.70110320    -0.74700
Mg353      Mg  0.30175943  0.71872217  0.76709560     1.58000
O354        O  0.33916148  0.74275810  0.76083124    -0.82100
H355        H  0.25045901  0.71347444  0.76097750    -0.05800
O356        O  0.26916986  0.72446189  0.71042409    -0.87300
H357        H  0.28014689  0.71638297  0.69063494    -0.05600
H358        H  0.24925602  0.76669846  0.74043301    -0.05800
C359        C  0.27798937  0.71472017  0.70326953     0.87800
C360        C  0.26313415  0.71370668  0.75746340     0.88400
C361        C  0.25358517  0.75597812  0.73433816     0.88400
H362        H  0.31884207  0.75549554  0.70780648    -0.05800
O363        O  0.32226759  0.72448222  0.73178531    -0.74800
Mg364      Mg  0.26779058  0.74870376  0.70145436     1.58000
H365        H  0.31904470  0.70046729  0.72746203    -0.05800
C366        C  0.25271943  0.67796155  0.71970308     0.93400
O367        O  0.23081639  0.72358165  0.70728820    -0.82000
C368        C  0.22924070  0.73583943  0.69830068     0.93400
O369        O  0.30236895  0.69348695  0.77668551    -0.82000
Mg370      Mg  0.32034236  0.75002026  0.74266285     1.58200
O371        O  0.24924676  0.69210531  0.71481103    -0.80300
O372        O  0.30311591  0.79175172  0.74172339    -0.82000
C373        C  0.34426491  0.99664892  0.68224783     0.03000
C374        C  0.33287016  0.99611005  0.66947820     0.03000
C375        C  0.32788518  0.01088731  0.66243327    -0.17500
C376        C  0.33320878  0.02623522  0.66790596     0.03000
C377        C  0.34448069  0.02670027  0.68082775     0.03000
C378        C  0.34991724  0.01192881  0.68741076    -0.17500
H379        H  0.35858691  0.01236948  0.69712171     0.05000
H380        H  0.31930265  0.01042032  0.65265734     0.05000
C381        C  0.41091776  0.26077695  0.87353245     0.80900
N382        N  0.40637109  0.26810671  0.85977837    -0.77400
C383        C  0.39617789  0.28093461  0.85970542     0.83400
N384        N  0.39022401  0.28657243  0.87377321    -0.77300
C385        C  0.39443583  0.27937961  0.88784106     0.83500
N386        N  0.40486259  0.26637706  0.88772518    -0.79000
C387        C  0.23589484  0.40672306  0.88816747     0.80900
N388        N  0.23599804  0.39727741  0.87490833    -0.77400
C389        C  0.24578110  0.38412200  0.87393176     0.83400
N390        N  0.25525483  0.38014451  0.88654803    -0.77300
C391        C  0.25524572  0.38928423  0.90004785     0.83500
N392        N  0.24581162  0.40292722  0.90072724    -0.79000
C393        C  0.27946922  0.12002495  0.61726531     0.80900
N394        N  0.26789157  0.12107473  0.60546323    -0.77400
C395        C  0.26204890  0.13599627  0.60103014     0.83400
N396        N  0.26765542  0.14939722  0.60862376    -0.77300
C397        C  0.27893369  0.14851655  0.62027895     0.83500
N398        N  0.28489553  0.13381836  0.62449384    -0.79000
C399        C  0.38958099  0.11718041  0.74329280     0.80900
N400        N  0.38045243  0.13071616  0.74099010    -0.77400
C401        C  0.38496180  0.14512666  0.74730668     0.83400
N402        N  0.39876265  0.14604719  0.75602254    -0.77300
C403        C  0.40805713  0.13275394  0.75867301     0.83500
N404        N  0.40352302  0.11816073  0.75223061    -0.79000
C405        C  0.12847928  0.25568525  0.59493527     0.80900
N406        N  0.14131987  0.25684232  0.60496675    -0.77400
C407        C  0.14070360  0.26653810  0.61795826     0.83400
N408        N  0.12702390  0.27510041  0.62108108    -0.77300
C409        C  0.11389191  0.27393649  0.61136638     0.83500
N410        N  0.11454875  0.26416449  0.59815711    -0.79000
C411        C  0.13327611  0.42117212  0.75417624     0.80900
N412        N  0.14765311  0.41679003  0.74763218    -0.77400
C413        C  0.14850608  0.40714863  0.73470979     0.83400
N414        N  0.13461086  0.40140537  0.72818925    -0.77300
C415        C  0.11986000  0.40554473  0.73439933     0.83500
N416        N  0.11911336  0.41562406  0.74747214    -0.79000
O417        O  0.28824703  0.26805379  0.71529157    -0.87600
C418        C  0.32483824  0.30153346  0.71914266     0.88400
Mg419      Mg  0.26817883  0.27093347  0.69958686     1.58100
O420        O  0.29677248  0.30035175  0.75045016    -0.87400
O421        O  0.29293205  0.26391297  0.74062130    -0.74700
C422        C  0.24345970  0.34601365  0.71122890     0.93500
O423        O  0.30321966  0.29023192  0.68737553    -0.74500
O424        O  0.24450109  0.33539160  0.70032445    -0.82000
Mg425      Mg  0.31194187  0.27081526  0.70510532     1.58000
C426        C  0.27684786  0.34074300  0.77035273     0.93400
O427        O  0.32227855  0.25036771  0.72064353    -0.80300
H428        H  0.28569664  0.28835655  0.76816274    -0.05600
C429        C  0.28975512  0.33497482  0.71700993     0.88300
O430        O  0.25255415  0.28092012  0.71996796    -0.74800
O431        O  0.31713138  0.28917047  0.72292828    -0.87500
O432        O  0.29045669  0.33387336  0.76764546    -0.80300
C433        C  0.33633705  0.30896982  0.76531708     0.93500
C434        C  0.33021375  0.24888050  0.73359137     0.93400
Mg435      Mg  0.26236872  0.32431449  0.73935785     1.58000
O436        O  0.25116768  0.34480297  0.72437201    -0.80300
O437        O  0.27115691  0.30422883  0.75637747    -0.74500
O438        O  0.33563019  0.29616956  0.75679759    -0.80400
O439        O  0.30632377  0.25147841  0.68650467    -0.82100
O440        O  0.23954339  0.29952307  0.68871851    -0.80400
C441        C  0.28473564  0.29732609  0.75880057     0.87800
O442        O  0.25827596  0.30679060  0.72129534    -0.87500
O443        O  0.28635650  0.32823053  0.72981074    -0.87600
O444        O  0.28277386  0.33116222  0.70398753    -0.74700
Mg445      Mg  0.31384165  0.28116277  0.74719783     1.58000
O446        O  0.32583833  0.32017232  0.76413262    -0.82100
H447        H  0.27617289  0.25128808  0.72788639    -0.05800
O448        O  0.27766852  0.29448592  0.69349737    -0.87300
H449        H  0.28850681  0.30549080  0.67503546    -0.05600
H450        H  0.24127845  0.29649903  0.73508677    -0.05800
C451        C  0.28958624  0.29698684  0.68479302     0.87800
C452        C  0.28546875  0.26059261  0.72778659     0.88400
C453        C  0.25019350  0.29495702  0.72569410     0.88400
H454        H  0.29929161  0.34402424  0.71680504    -0.05800
O455        O  0.32231892  0.31518301  0.72587860    -0.74800
Mg456      Mg  0.26150208  0.31436049  0.69708055     1.58000
H457        H  0.33380918  0.30077282  0.70970810    -0.05800
C458        C  0.29417440  0.24977798  0.67725505     0.93400
O459        O  0.24626533  0.27384773  0.68377471    -0.82000
C460        C  0.23623514  0.28554926  0.68314443     0.93400
O461        O  0.33103297  0.26018792  0.74386081    -0.82000
Mg462      Mg  0.30566112  0.32423128  0.74644103     1.58200
O463        O  0.28129685  0.25821728  0.67879732    -0.80300
O464        O  0.26602522  0.34202200  0.75960715    -0.82000
C465        C  0.00053564  0.33300865  0.66985949     0.03000
C466        C  0.00044429  0.34386372  0.68307249     0.03000
C467        C  0.01543280  0.35024224  0.68840125    -0.17500
C468        C  0.03059345  0.34635875  0.68135472     0.03000
C469        C  0.03060413  0.33474569  0.66874633     0.03000
C470        C  0.01564020  0.32861418  0.66319560    -0.17500
H471        H  0.01584908  0.31979590  0.65359030     0.05000
H472        H  0.01516610  0.35849273  0.69840692     0.05000
C473        C  0.33842021  0.32825957  0.98031973     0.03000
C474        C  0.32683739  0.34108397  0.98103204     0.03000
C475        C  0.32241655  0.34729649  0.99605692    -0.17500
C476        C  0.32858220  0.34113758  0.01052423     0.03000
C477        C  0.33944539  0.32773520  0.00992078     0.03000
C478        C  0.34430349  0.32176430  0.99486987    -0.17500
H479        H  0.35312699  0.31201831  0.99458576     0.05000
H480        H  0.31313856  0.35660094  0.99652671     0.05000
C481        C  0.35188528  0.02566321  0.32510845     0.03000
C482        C  0.34100386  0.02551225  0.33832518     0.03000
C483        C  0.33602092  0.01042809  0.34451648    -0.17500
C484        C  0.34026963  0.99554637  0.33749509     0.03000
C485        C  0.35128522  0.99561611  0.32441592     0.03000
C486        C  0.35709924  0.01068934  0.31872241    -0.17500
H487        H  0.36493991  0.01080115  0.30830317     0.05000
H488        H  0.32847572  0.01021541  0.35513422     0.05000
C489        C  0.24341471  0.41049844  0.10565307     0.80900
N490        N  0.23975363  0.39873950  0.11644200    -0.77400
C491        C  0.24659462  0.38392189  0.11536710     0.83400
N492        N  0.25709650  0.38081702  0.10340055    -0.77300
C493        C  0.26111610  0.39224824  0.09246689     0.83500
N494        N  0.25435101  0.40739791  0.09362428    -0.79000
C495        C  0.41184623  0.25407933  0.11360629     0.80900
N496        N  0.40246036  0.25879904  0.12603200    -0.77400
C497        C  0.39019064  0.26947018  0.12434761     0.83400
N498        N  0.38699849  0.27572869  0.10975501    -0.77300
C499        C  0.39609297  0.27136853  0.09687171     0.83500
N500        N  0.40864349  0.26037952  0.09870295    -0.79000
C501        C  0.38631618  0.10754099  0.24754046     0.80900
N502        N  0.40099841  0.11024196  0.24023173    -0.77400
C503        C  0.40191977  0.12081284  0.22761156     0.83400
N504        N  0.38831774  0.12868790  0.22268139    -0.77300
C505        C  0.37386556  0.12620021  0.23001992     0.83500
N506        N  0.37299232  0.11565155  0.24233735    -0.79000
C507        C  0.28180557  0.11436839  0.38793965     0.80900
N508        N  0.27222910  0.11667015  0.40108930    -0.77400
C509        C  0.26188553  0.12960357  0.40167233     0.83400
N510        N  0.26093789  0.13981732  0.38900981    -0.77300
C511        C  0.27048084  0.13759700  0.37598018     0.83500
N512        N  0.28090702  0.12490486  0.37553365    -0.79000
C513        C  0.12558689  0.24341090  0.39594110     0.80900
N514        N  0.13354804  0.23857478  0.38257142    -0.77400
C515        C  0.12891716  0.24369986  0.36797326     0.83400
N516        N  0.11622398  0.25398362  0.36661737    -0.77300
C517        C  0.10790959  0.25920272  0.37961707     0.83500
N518        N  0.11247754  0.25378209  0.39454293    -0.79000
C519        C  0.13823631  0.41926182  0.25143777     0.80900
N520        N  0.12297609  0.41689383  0.25773306    -0.77400
C521        C  0.12096826  0.40628938  0.27023899     0.83400
N522        N  0.13400130  0.39799647  0.27589404    -0.77300
C523        C  0.14895103  0.40016865  0.26956221     0.83500
N524        N  0.15093440  0.41078209  0.25745495    -0.79000
O525        O  0.25656496  0.29073973  0.24223103    -0.87600
C526        C  0.21871519  0.25960165  0.24403507     0.88400
Mg527      Mg  0.27405898  0.28912506  0.22345363     1.58100
O528        O  0.24880467  0.25273389  0.27273398    -0.87400
O529        O  0.25514452  0.29024171  0.26835840    -0.74700
C530        C  0.29615301  0.21214936  0.22236583     0.93500
O531        O  0.23734535  0.27346968  0.21353626    -0.74500
O532        O  0.29579304  0.22446770  0.21322944    -0.82000
Mg533      Mg  0.23173983  0.29062821  0.23464338     1.58000
C534        C  0.26543864  0.20694144  0.28195364     0.93400
O535        O  0.22428174  0.30873466  0.25418521    -0.80300
H536        H  0.26171545  0.26056994  0.29141932    -0.05600
C537        C  0.25176332  0.22395742  0.23344783     0.88300
O538        O  0.29185568  0.27595005  0.24026404    -0.74800
O539        O  0.22770364  0.27026056  0.24952914    -0.87500
O540        O  0.25225304  0.21500918  0.28138128    -0.80300
C541        C  0.20803714  0.24377293  0.28535043     0.93500
C542        C  0.21775458  0.30822360  0.26798349     0.93400
Mg543      Mg  0.28074918  0.23007818  0.25483451     1.58000
O544        O  0.28917074  0.21200797  0.23594397    -0.80300
O545        O  0.27459612  0.24698361  0.27567201    -0.74500
O546        O  0.21157071  0.25825658  0.28145081    -0.80400
O547        O  0.23542125  0.31191147  0.21819044    -0.82100
O548        O  0.30047734  0.26200275  0.20619423    -0.80400
C549        C  0.26154520  0.25357156  0.28050820     0.87800
O550        O  0.28481940  0.25031805  0.23933698    -0.87500
O551        O  0.25605567  0.22938726  0.24652682    -0.87600
O552        O  0.25803823  0.22899552  0.22050414    -0.74700
Mg553      Mg  0.23351017  0.27339205  0.27414481     1.58000
O554        O  0.21751069  0.23193356  0.28260511    -0.82100
H555        H  0.27137763  0.30398316  0.25598272    -0.05800
O556        O  0.26301592  0.26680846  0.21598841    -0.87300
H557        H  0.24930205  0.25891115  0.19786438    -0.05600
H558        H  0.30379223  0.25810901  0.25216763    -0.05800
C559        C  0.25000341  0.26612990  0.20861768     0.87800
C560        C  0.26136186  0.29548160  0.25542674     0.88400
C561        C  0.29396640  0.26118947  0.24416087     0.88400
H562        H  0.24210807  0.21504545  0.23299291    -0.05800
O563        O  0.22081364  0.24469193  0.24724612    -0.74800
Mg564      Mg  0.27906957  0.24637333  0.21465080     1.58000
H565        H  0.20914240  0.26301863  0.23586567    -0.05800
C566        C  0.24544094  0.31252012  0.20667931     0.93400
O567        O  0.29306197  0.28786531  0.20394805    -0.82000
C568        C  0.30285816  0.27634818  0.20103744     0.93400
O569        O  0.21766195  0.29544802  0.27641049    -0.82000
Mg570      Mg  0.23764203  0.23079488  0.26427031     1.58200
O571        O  0.25817238  0.30374835  0.20620612    -0.80300
O572        O  0.27679670  0.20892611  0.27180806    -0.82000
C573        C  0.03040910  0.33782850  0.33477416     0.03000
C574        C  0.03074293  0.35060288  0.32320277     0.03000
C575        C  0.01573312  0.35702101  0.31779457    -0.17500
C576        C  0.00049018  0.35101238  0.32269498     0.03000
C577        C  0.00020228  0.33841306  0.33430162     0.03000
C578        C  0.01511122  0.33223856  0.34010886    -0.17500
H579        H  0.01485193  0.32228683  0.34858013     0.05000
H580        H  0.01581935  0.36723440  0.30966404     0.05000
C581        C  0.67793247  0.33098783  0.98427004     0.03000
C582        C  0.69012610  0.34315685  0.98473515     0.03000
C583        C  0.69534555  0.34888844  0.99962635    -0.17500
C584        C  0.68930952  0.34293818  0.01425884     0.03000
C585        C  0.67688176  0.33079100  0.01389790     0.03000
C586        C  0.67163401  0.32504947  0.99882260    -0.17500
H587        H  0.66236184  0.31571407  0.99833044     0.05000
H588        H  0.70457944  0.35826170  0.99977719     0.05000
C589        C  0.89171720  0.41465603  0.24661325     0.80900
N590        N  0.87836372  0.40764374  0.25310782    -0.77400
C591        C  0.87933218  0.39737317  0.26559490     0.83400
N592        N  0.89408861  0.39391050  0.27185898    -0.77300
C593        C  0.90788693  0.40056389  0.26561570     0.83500
N594        N  0.90675563  0.41102183  0.25281578    -0.79000
C595        C  0.90039475  0.24867431  0.39232686     0.80900
N596        N  0.88854260  0.24735784  0.38108071    -0.77400
C597        C  0.88922131  0.25637798  0.36757755     0.83400
N598        N  0.90187875  0.26652523  0.36525375    -0.77300
C599        C  0.91384042  0.26816599  0.37619028     0.83500
N600        N  0.91301145  0.25937422  0.39004913    -0.79000
C601        C  0.60353537  0.25966350  0.11899789     0.80900
N602        N  0.61001099  0.26748233  0.13175161    -0.77400
C603        C  0.62095180  0.27957249  0.12994879     0.83400
N604        N  0.62572522  0.28383682  0.11513363    -0.77300
C605        C  0.61957757  0.27637989  0.10202601     0.83500
N606        N  0.60832747  0.26413012  0.10386694    -0.79000
C607        C  0.76352234  0.42055160  0.11202037     0.80900
N608        N  0.76080040  0.41060818  0.12460644    -0.77400
C609        C  0.75057344  0.39787206  0.12352714     0.83400
N610        N  0.74271880  0.39504283  0.10966608    -0.77300
C611        C  0.74538150  0.40461780  0.09672283     0.83500
N612        N  0.75603897  0.41742181  0.09774642    -0.79000
C613        C  0.61085182  0.11944348  0.23675184     0.80900
N614        N  0.62007672  0.13283185  0.23922366    -0.77400
C615        C  0.63221636  0.13283883  0.25011729     0.83400
N616        N  0.63535639  0.11920482  0.25854932    -0.77300
C617        C  0.62659102  0.10547238  0.25609107     0.83500
N618        N  0.61417097  0.10553655  0.24514465    -0.79000
C619        C  0.76629762  0.13287214  0.40286833     0.80900
N620        N  0.76193018  0.14590815  0.39401415    -0.77400
C621        C  0.75209878  0.14456473  0.38123516     0.83400
N622        N  0.74650874  0.12977543  0.37694518    -0.77300
C623        C  0.75050313  0.11631410  0.38546615     0.83500
N624        N  0.76049701  0.11779049  0.39862039    -0.79000
O625        O  0.77331430  0.28680841  0.26163215    -0.87600
C626        C  0.73951164  0.27804053  0.29617632     0.88400
Mg627      Mg  0.76921594  0.30414891  0.24312176     1.58100
O628        O  0.74311645  0.24798949  0.26656595    -0.87400
O629        O  0.77912882  0.26110274  0.26439062    -0.74700
C630        C  0.69518734  0.28845897  0.21657272     0.93500
O631        O  0.74820526  0.31196597  0.27755742    -0.74500
O632        O  0.70518955  0.30016716  0.21771983    -0.82000
Mg633      Mg  0.76886647  0.29504446  0.28559163     1.58000
C634        C  0.70215574  0.22783049  0.24710061     0.93400
O635        O  0.79009040  0.28021019  0.29613298    -0.80300
H636        H  0.75650951  0.23162742  0.25481603    -0.05600
C637        C  0.70624583  0.27995245  0.26083820     0.88300
O638        O  0.76138154  0.28413041  0.22568683    -0.74800
O639        O  0.75204308  0.27538583  0.28843156    -0.87500
O640        O  0.70941950  0.23003430  0.26028704    -0.80300
C641        C  0.73418978  0.23121684  0.30502535     0.93500
C642        C  0.79161309  0.26661710  0.30323869     0.93400
Mg643      Mg  0.71914099  0.26008477  0.23314898     1.58000
O644        O  0.69766060  0.27475099  0.22318201    -0.80300
O645        O  0.74024268  0.24361741  0.24095130    -0.74500
O646        O  0.74704783  0.23973762  0.30385505    -0.80400
O647        O  0.78632046  0.31609778  0.28258500    -0.82100
O648        O  0.74016529  0.31580679  0.21531926    -0.80400
C649        C  0.74692941  0.24058872  0.25428240     0.87800
O650        O  0.73544804  0.28003433  0.23016823    -0.87500
O651        O  0.71466502  0.26812767  0.25716194    -0.87600
O652        O  0.70878516  0.29388071  0.25486478    -0.74700
Mg653      Mg  0.76170625  0.25167432  0.28380989     1.58000
O654        O  0.72282606  0.23209860  0.29484426    -0.82100
H655        H  0.79132400  0.27622269  0.24941113    -0.05800
O656        O  0.74489149  0.30724219  0.25207611    -0.87300
H657        H  0.73211778  0.32418279  0.26367902    -0.05600
H658        H  0.74752807  0.26850261  0.21282843    -0.05800
C659        C  0.74143447  0.31495335  0.26426260     0.87800
C660        C  0.78175326  0.27492097  0.25819612     0.88400
C661        C  0.74793918  0.27731036  0.22237507     0.88400
H662        H  0.69678548  0.27850317  0.26973528    -0.05800
O663        O  0.72622156  0.27084517  0.29302498    -0.74800
Mg664      Mg  0.72571266  0.30366233  0.23526325     1.58000
H665        H  0.73977585  0.28697633  0.30561710    -0.05800
C666        C  0.78694212  0.32663962  0.27151159     0.93400
O667        O  0.76520214  0.32227456  0.22322299    -0.82000
C668        C  0.75351660  0.32338708  0.21336961     0.93400
O669        O  0.78127778  0.25529874  0.30183808    -0.82000
Mg670      Mg  0.71882117  0.25070208  0.27547662     1.58200
O671        O  0.77942145  0.32485583  0.25834775    -0.80300
O672        O  0.70232272  0.23838398  0.23601668    -0.82000
C673        C  0.68556555  0.02379154  0.31823619     0.03000
C674        C  0.69639873  0.02479504  0.33145597     0.03000
C675        C  0.70210264  0.01022406  0.33832953    -0.17500
C676        C  0.69735961  0.99466840  0.33286574     0.03000
C677        C  0.68619856  0.99375433  0.31988711     0.03000
C678        C  0.68070111  0.00828418  0.31288528    -0.17500
H679        H  0.67184236  0.00745497  0.30334752     0.05000
H680        H  0.71106823  0.01113481  0.34773575     0.05000
C681        C  0.77434388  0.89347982  0.40535240     0.80900
N682        N  0.76716450  0.90742924  0.39999524    -0.77400
C683        C  0.75790374  0.90699050  0.38638601     0.83400
N684        N  0.75594768  0.89267784  0.37850140    -0.77300
C685        C  0.76302480  0.87892187  0.38392035     0.83500
N686        N  0.77211354  0.87946498  0.39727465    -0.79000
C687        C  0.61238476  0.89087199  0.24676177     0.80900
N688        N  0.61864920  0.90497790  0.25289627    -0.77400
C689        C  0.62908606  0.90429621  0.26573918     0.83400
N690        N  0.63332430  0.88961062  0.27199530    -0.77300
C691        C  0.62730224  0.87572368  0.26563792     0.83500
N692        N  0.61696951  0.87660766  0.25325266    -0.79000
C693        C  0.90329017  0.73370197  0.38987332     0.80900
N694        N  0.90218590  0.74588848  0.40095063    -0.77400
C695        C  0.88723967  0.75179677  0.40516905     0.83400
N696        N  0.87372127  0.74514933  0.39861130    -0.77300
C697        C  0.87465212  0.73294328  0.38788711     0.83500
N698        N  0.88948230  0.72739774  0.38336315    -0.79000
C699        C  0.91346110  0.62201170  0.26406783     0.80900
N700        N  0.91209359  0.61011621  0.25263803    -0.77400
C701        C  0.89748893  0.60793737  0.24502912     0.83400
N702        N  0.88486771  0.61776689  0.24866395    -0.77300
C703        C  0.88621904  0.62955431  0.25974196     0.83500
N704        N  0.90043283  0.63149989  0.26759117    -0.79000
C705        C  0.62102977  0.78617903  0.11478301     0.80900
N706        N  0.62419514  0.77619649  0.10209169    -0.77400
C707        C  0.63783925  0.76669586  0.10220835     0.83400
N708        N  0.64769183  0.76687271  0.11519956    -0.77300
C709        C  0.64443100  0.77648866  0.12787799     0.83500
N710        N  0.63120686  0.78622918  0.12752410    -0.79000
C711        C  0.76419497  0.61327976  0.12160671     0.80900
N712        N  0.75834323  0.61826115  0.10712097    -0.77400
C713        C  0.74561622  0.62902093  0.10660361     0.83400
N714        N  0.73902697  0.63463449  0.12043585    -0.77300
C715        C  0.74498423  0.62982032  0.13469975     0.83500
N716        N  0.75749080  0.61927547  0.13512235    -0.79000
O717        O  0.76514224  0.73086656  0.29193097    -0.87600
C718        C  0.73171875  0.69774326  0.27730248     0.88400
Mg719      Mg  0.75899595  0.74838493  0.30963447     1.58100
O720        O  0.73939973  0.72906179  0.24999393    -0.87400
O721        O  0.77349305  0.73021744  0.26713759    -0.74700
C722        C  0.68876258  0.77918452  0.28622535     0.93500
O723        O  0.73718735  0.71328635  0.31263272    -0.74500
O724        O  0.69691408  0.77576468  0.29862495    -0.82000
Mg725      Mg  0.75962772  0.70616891  0.29769862     1.58000
C726        C  0.70262969  0.75183585  0.22572127     0.93400
O727        O  0.78249646  0.69653259  0.28488276    -0.80300
H728        H  0.75495708  0.74114539  0.23595053    -0.05600
C729        C  0.69877658  0.73376651  0.27658557     0.88300
O730        O  0.75380667  0.76726483  0.29006568    -0.74800
O731        O  0.74492003  0.70497452  0.27652075    -0.87500
O732        O  0.70861431  0.73776740  0.22799868    -0.80300
C733        C  0.73197824  0.69084493  0.23112110     0.93500
C734        C  0.78586691  0.69072731  0.27119641     0.93400
Mg735      Mg  0.71502803  0.76282569  0.26045003     1.58000
O736        O  0.69217607  0.77332552  0.27254509    -0.80300
O737        O  0.73776212  0.75524086  0.24642590    -0.74500
O738        O  0.74401584  0.69172687  0.24058331    -0.80400
O739        O  0.77510649  0.70796556  0.31978383    -0.82100
O740        O  0.72966503  0.77673879  0.31726490    -0.80400
C741        C  0.74439577  0.74165131  0.24365914     0.87800
O742        O  0.72876297  0.76328483  0.28206010    -0.87500
O743        O  0.70840140  0.73830476  0.26611758    -0.87600
O744        O  0.70013239  0.73831322  0.29101196    -0.74700
Mg745      Mg  0.75735779  0.71123539  0.25477057     1.58000
O746        O  0.72084846  0.70148533  0.23086981    -0.82100
H747        H  0.78405812  0.74405328  0.28428411    -0.05800
O748        O  0.73443156  0.73937766  0.30888769    -0.87300
H749        H  0.71969232  0.72683072  0.32339950    -0.05600
H750        H  0.74259613  0.78126555  0.27348116    -0.05800
C751        C  0.73004468  0.72664825  0.31540150     0.87800
C752        C  0.77471751  0.73528433  0.28139560     0.88400
C753        C  0.74159834  0.77111703  0.28159720     0.88400
H754        H  0.68936089  0.72515289  0.27349572    -0.05800
O755        O  0.71954820  0.70189337  0.26885147    -0.74800
Mg756      Mg  0.71614001  0.75713066  0.30364134     1.58000
H757        H  0.73037659  0.68784215  0.28566975    -0.05800
C758        C  0.77528001  0.71835709  0.33098576     0.93400
O759        O  0.75279788  0.76780272  0.32784337    -0.82000
C760        C  0.74186315  0.77860136  0.32636542     0.93400
O761        O  0.77677288  0.69293214  0.25919274    -0.82000
Mg762      Mg  0.71479784  0.72064370  0.24890259     1.58200
O763        O  0.76701773  0.73144762  0.33032768    -0.80300
O764        O  0.70147003  0.76222732  0.23690736    -0.82000
C765        C  0.99882792  0.67866970  0.34450182     0.03000
C766        C  0.99914895  0.66700150  0.33200892     0.03000
C767        C  0.01425833  0.66092351  0.32697394    -0.17500
C768        C  0.02921204  0.66674684  0.33282127     0.03000
C769        C  0.02906857  0.67870267  0.34512202     0.03000
C770        C  0.01380524  0.68401318  0.35100427    -0.17500
H771        H  0.01356762  0.69347207  0.35997432     0.05000
H772        H  0.01433960  0.65140006  0.31805321     0.05000
C773        C  0.27992707  0.90869398  0.38986478     0.80900
N774        N  0.28166434  0.89684867  0.37875156    -0.77400
C775        C  0.27347498  0.88270384  0.38015061     0.83400
N776        N  0.26371331  0.88028262  0.39287612    -0.77300
C777        C  0.26171256  0.89180366  0.40421575     0.83500
N778        N  0.26962203  0.90637376  0.40259416    -0.79000
C779        C  0.40583640  0.90286346  0.22723198     0.80900
N780        N  0.40358804  0.91335453  0.23970846    -0.77400
C781        C  0.38830843  0.91548537  0.24594054     0.83400
N782        N  0.37566900  0.90687623  0.23981364    -0.77300
C783        C  0.37791990  0.89638086  0.22757773     0.83500
N784        N  0.39295967  0.89450803  0.22134035    -0.79000
C785        C  0.25059692  0.61367500  0.10816350     0.80900
N786        N  0.25972409  0.61686271  0.09469346    -0.77400
C787        C  0.26628980  0.63210469  0.09263754     0.83400
N788        N  0.26372044  0.64351572  0.10398057    -0.77300
C789        C  0.25488493  0.64038407  0.11717511     0.83500
N790        N  0.24841701  0.62549339  0.11923484    -0.79000
C791        C  0.13457318  0.60555020  0.25218242     0.80900
N792        N  0.12005946  0.60788093  0.25990124    -0.77400
C793        C  0.11919534  0.61897119  0.27213743     0.83400
N794        N  0.13260498  0.62779624  0.27616591    -0.77300
C795        C  0.14682256  0.62560621  0.26828277     0.83500
N796        N  0.14758712  0.61453535  0.25652724    -0.79000
C797        C  0.11067888  0.75675574  0.38311825     0.80900
N798        N  0.11795280  0.76285354  0.36986635    -0.77400
C799        C  0.12805698  0.77576370  0.37054215     0.83400
N800        N  0.13105333  0.78280864  0.38480153    -0.77300
C801        C  0.12421984  0.77695158  0.39843120     0.83500
N802        N  0.11399362  0.76371709  0.39766852    -0.79000
C803        C  0.41512947  0.77688345  0.11505524     0.80900
N804        N  0.40536402  0.77357562  0.12766230    -0.77400
C805        C  0.39341602  0.76242625  0.12683878     0.83400
N806        N  0.39105765  0.75420949  0.11307320    -0.77300
C807        C  0.40037699  0.75740932  0.09999639     0.83500
N808        N  0.41246266  0.76897743  0.10086858    -0.79000
O809        O  0.25565311  0.79604589  0.24825735    -0.87600
C810        C  0.29577355  0.76707590  0.24713481     0.88400
Mg811      Mg  0.23712997  0.79378569  0.26609333     1.58100
O812        O  0.26676829  0.75912660  0.21765200    -0.87400
O813        O  0.25854669  0.79625146  0.22225195    -0.74700
C814        C  0.22065363  0.71568600  0.26732702     0.93500
O815        O  0.27469532  0.77938866  0.27748905    -0.74500
O816        O  0.22003499  0.72802942  0.27635103    -0.82000
Mg817      Mg  0.28022122  0.79681331  0.25678656     1.58000
C818        C  0.25234921  0.71277557  0.20833713     0.93400
O819        O  0.28756697  0.81554849  0.23811101    -0.80300
H820        H  0.25366495  0.76634928  0.19886626    -0.05600
C821        C  0.26438648  0.73059199  0.25725992     0.88300
O822        O  0.22100318  0.77948306  0.24865942    -0.74800
O823        O  0.28603995  0.77704707  0.24167986    -0.87500
O824        O  0.26503029  0.72163134  0.20889760    -0.80300
C825        C  0.30779098  0.75219528  0.20517329     0.93500
C826        C  0.29503336  0.81595976  0.22481372     0.93400
Mg827      Mg  0.23556003  0.73460815  0.23512634     1.58000
O828        O  0.22769869  0.71600041  0.25378983    -0.80300
O829        O  0.24134539  0.75193405  0.21439359    -0.74500
O830        O  0.30369445  0.76647790  0.20932691    -0.80400
O831        O  0.27498130  0.81742626  0.27335047    -0.82100
O832        O  0.21215161  0.76489097  0.28258153    -0.80400
C833        C  0.25408094  0.75930819  0.20975101     0.87800
O834        O  0.22979769  0.75448544  0.25028524    -0.87500
O835        O  0.26007311  0.73544648  0.24396222    -0.87600
O836        O  0.25736314  0.73527901  0.26995844    -0.74700
Mg837      Mg  0.28108776  0.78058437  0.21689757     1.58000
O838        O  0.29905478  0.73986208  0.20829376    -0.82100
H839        H  0.24100860  0.80885988  0.23398577    -0.05800
O840        O  0.24920148  0.77233121  0.27441477    -0.87300
H841        H  0.26245243  0.76493433  0.29303584    -0.05600
H842        H  0.21082035  0.76064595  0.23666288    -0.05800
C843        C  0.26196593  0.77204495  0.28220163     0.87800
C844        C  0.25136929  0.80084224  0.23492075     0.88400
C845        C  0.22006983  0.76456039  0.24497199     0.88400
H846        H  0.27469831  0.72250500  0.25813109    -0.05800
O847        O  0.29477308  0.75210029  0.24375771    -0.74800
Mg848      Mg  0.23488345  0.75095966  0.27514134     1.58000
H849        H  0.30503444  0.77112984  0.25537660    -0.05800
C850        C  0.26415374  0.81813553  0.28411731     0.93400
O851        O  0.21678849  0.79143845  0.28450985    -0.82000
C852        C  0.20796079  0.77901175  0.28710066     0.93400
O853        O  0.29615495  0.80359416  0.21583285    -0.82000
Mg854      Mg  0.27874074  0.73770133  0.22641010     1.58200
O855        O  0.25133297  0.80944665  0.28376757    -0.80300
O856        O  0.24103007  0.71379253  0.21860229    -0.82000
C857        C  0.33857740  0.68161917  0.98351687     0.03000
C858        C  0.35113210  0.69355128  0.98321373     0.03000
C859        C  0.35698945  0.69950669  0.99793901    -0.17500
C860        C  0.35079492  0.69446409  0.01291729     0.03000
C861        C  0.33882248  0.68193112  0.01310989     0.03000
C862        C  0.33317489  0.67578048  0.99844536    -0.17500
H863        H  0.32386040  0.66644903  0.99867153     0.05000
H864        H  0.36643133  0.70865749  0.99769157     0.05000
C865        C  0.37053751  0.71040076  0.05232490     0.16700
C866        C  0.37748797  0.71252523  0.06752208    -0.32400
C867        C  0.38452838  0.72770258  0.07110146     0.21100
C868        C  0.38491140  0.74015840  0.06000099     0.03300
C869        C  0.37779766  0.73808022  0.04488366    -0.22100
C870        C  0.37051147  0.72300285  0.04141442     0.12400
S871        S  0.36166309  0.69286618  0.04538092    -0.05800
C872        C  0.35754379  0.70264894  0.02756184    -0.09200
C873        C  0.36291812  0.71875077  0.02743618    -0.25800
S874        S  0.39364275  0.75778544  0.06690803    -0.03000
C875        C  0.39642948  0.74844333  0.08512182    -0.16500
C876        C  0.39102074  0.73241466  0.08548701    -0.14500
H877        H  0.37729551  0.70282035  0.07623723     0.20900
H878        H  0.37777944  0.74785705  0.03624345     0.16900
H879        H  0.36155182  0.72701005  0.01747690     0.19500
H880        H  0.39116451  0.72480630  0.09603313     0.12800
C881        C  0.34251820  0.74382341  0.17595271     0.16700
C882        C  0.35192734  0.73844563  0.16300888    -0.32400
C883        C  0.36350732  0.74925183  0.15673468     0.21100
C884        C  0.36598966  0.76443842  0.16346413     0.03300
C885        C  0.35676051  0.76971109  0.17644482    -0.22100
C886        C  0.34485544  0.75918086  0.18231995     0.12400
S887        S  0.32655459  0.73343863  0.18417049    -0.05800
C888        C  0.32272037  0.75027654  0.19576585    -0.09200
C889        C  0.33363590  0.76289645  0.19372989    -0.25800
S890        S  0.38013233  0.77603108  0.15404760    -0.03000
C891        C  0.38250980  0.76048984  0.14055098    -0.16500
C892        C  0.37295847  0.74692392  0.14341584    -0.14500
H893        H  0.34984358  0.72667100  0.15765429     0.20900
H894        H  0.35834325  0.78177278  0.18134093     0.16900
H895        H  0.33285760  0.77455840  0.19964709     0.19500
H896        H  0.37278150  0.73612132  0.13606363     0.12800
C897        C  0.15686187  0.79066788  0.33760060     0.16700
C898        C  0.16991584  0.79753865  0.32912025    -0.32400
C899        C  0.17573502  0.78906859  0.31573128     0.21100
C900        C  0.16855346  0.77467346  0.31080432     0.03300
C901        C  0.15515282  0.76818536  0.31887227    -0.22100
C902        C  0.14965710  0.77638135  0.33245045     0.12400
S903        S  0.14974959  0.79744249  0.35560131    -0.05800
C904        C  0.13716971  0.78068528  0.35619951    -0.09200
C905        C  0.13817513  0.77078670  0.34288438    -0.25800
S906        S  0.17851026  0.76502875  0.29575696    -0.03000
C907        C  0.19267659  0.78042866  0.29609909    -0.16500
C908        C  0.18950759  0.79261264  0.30708837    -0.14500
H909        H  0.17590495  0.80842885  0.33333707     0.20900
H910        H  0.14988838  0.75669155  0.31531015     0.16900
H911        H  0.13173666  0.75940179  0.34145436     0.19500
H912        H  0.19746807  0.80281658  0.30942898     0.12800
C913        C  0.18446940  0.65247823  0.26631625     0.16700
C914        C  0.19791269  0.66111877  0.26066581    -0.32400
C915        C  0.20153245  0.67583443  0.26810492     0.21100
C916        C  0.19257111  0.68147643  0.28100195     0.03300
C917        C  0.17925025  0.67263498  0.28687176    -0.22100
C918        C  0.17521894  0.65816049  0.27900910     0.12400
S919        S  0.17706388  0.63551850  0.25748132    -0.05800
C920        C  0.16093192  0.63626884  0.27063076    -0.09200
C921        C  0.16163508  0.64881282  0.28161580    -0.25800
S922        S  0.19807888  0.70037500  0.28734494    -0.03000
C923        C  0.21214413  0.70080687  0.27206948    -0.16500
C924        C  0.21284549  0.68679620  0.26301335    -0.14500
H925        H  0.20470706  0.65699046  0.25034588     0.20900
H926        H  0.17183302  0.67727744  0.29653693     0.16900
H927        H  0.15232126  0.65146059  0.29039360     0.19500
H928        H  0.22050497  0.68511864  0.25260177     0.12800
C929        C  0.29751249  0.64125697  0.05871278     0.16700
C930        C  0.30984074  0.64126727  0.04696177    -0.32400
C931        C  0.31621623  0.65639774  0.04196499     0.21100
C932        C  0.31059803  0.67083853  0.04834937     0.03300
C933        C  0.29835099  0.67081852  0.06002626    -0.22100
C934        C  0.29199166  0.65577856  0.06496041     0.12400
S935        S  0.28821619  0.62436100  0.06693695    -0.05800
C936        C  0.27687289  0.63711260  0.07896459    -0.09200
C937        C  0.28023361  0.65348896  0.07632211    -0.25800
S938        S  0.31909548  0.68792039  0.04006796    -0.03000
C939        C  0.33050120  0.67561444  0.02774352    -0.16500
C940        C  0.32765971  0.65907484  0.03020927    -0.14500
H941        H  0.31421881  0.63001338  0.04188202     0.20900
H942        H  0.29384377  0.68208558  0.06497993     0.16900
H943        H  0.27465450  0.66339463  0.08281913     0.19500
H944        H  0.33305329  0.64951871  0.02309402     0.12800
C945        C  0.25819858  0.67471693  0.14730566     0.16700
C946        C  0.26323585  0.68815807  0.15609483    -0.32400
C947        C  0.25631606  0.69032488  0.17115900     0.21100
C948        C  0.24463790  0.67979669  0.17719316     0.03300
C949        C  0.23962075  0.66623443  0.16839181    -0.22100
C950        C  0.24679443  0.66389722  0.15336165     0.12400
S951        S  0.26572457  0.66980963  0.12906345    -0.05800
C952        C  0.25371599  0.65272178  0.12966583    -0.09200
C953        C  0.24416221  0.65114247  0.14323400    -0.25800
S954        S  0.23762417  0.68489342  0.19572269    -0.03000
C955        C  0.25083837  0.70113547  0.19527750    -0.16500
C956        C  0.26001121  0.70248545  0.18151324    -0.14500
H957        H  0.27232980  0.69645940  0.15147532     0.20900
H958        H  0.23070306  0.65780639  0.17310829     0.16900
H959        H  0.23606929  0.64106206  0.14570498     0.19500
H960        H  0.26884127  0.71196676  0.17914788     0.12800
C961        C  0.31680900  0.85652430  0.22298902     0.16700
C962        C  0.32360608  0.87127489  0.22779010    -0.32400
C963        C  0.33940938  0.87478096  0.22263761     0.21100
C964        C  0.34784881  0.86442277  0.21254987     0.03300
C965        C  0.34079852  0.84990292  0.20724534    -0.22100
C966        C  0.32521273  0.84605910  0.21296538     0.12400
S967        S  0.29927338  0.84878260  0.23063924    -0.05800
C968        C  0.30345932  0.83104883  0.22061644    -0.09200
C969        C  0.31740387  0.83145617  0.21129335    -0.25800
S970        S  0.36755844  0.86999196  0.20919988    -0.03000
C971        C  0.36447289  0.88613771  0.22193224    -0.16500
C972        C  0.34882592  0.88733940  0.22792838    -0.14500
H973        H  0.31732750  0.87910506  0.23614998     0.20900
H974        H  0.34760071  0.84145834  0.19992893     0.16900
H975        H  0.32238815  0.82113020  0.20497120     0.19500
H976        H  0.34482255  0.89633842  0.23649290     0.12800
C977        C  0.27631488  0.84771092  0.31702296     0.16700
C978        C  0.28338365  0.85972499  0.32658299    -0.32400
C979        C  0.27768617  0.86114304  0.34229736     0.21100
C980        C  0.26573087  0.85088116  0.34826630     0.03300
C981        C  0.25867268  0.83894195  0.33873029    -0.22100
C982        C  0.26411876  0.83773963  0.32299049     0.12400
S983        S  0.28146279  0.84388168  0.29766503    -0.05800
C984        C  0.26680328  0.82891962  0.29767947    -0.09200
C985        C  0.25850300  0.82704719  0.31190730    -0.25800
S986        S  0.25995823  0.85481500  0.36733130    -0.03000
C987        C  0.27342272  0.87081755  0.36718843    -0.16500
C988        C  0.28222886  0.87264444  0.35318087    -0.14500
H989        H  0.29271490  0.86773251  0.32192886     0.20900
H990        H  0.24914639  0.83111024  0.34330139     0.16900
H991        H  0.24913943  0.81805772  0.31414592     0.19500
H992        H  0.29088927  0.88227680  0.35083571     0.12800
C993        C  0.06760806  0.70473771  0.35333600     0.16700
C994        C  0.08113443  0.71501684  0.35190105    -0.32400
C995        C  0.08611040  0.72373023  0.36545439     0.21100
C996        C  0.07823260  0.72219426  0.37999061     0.03300
C997        C  0.06482580  0.71154329  0.38153454    -0.22100
C998        C  0.05964749  0.70295468  0.36781329     0.12400
S999        S  0.05876233  0.69455550  0.33779550    -0.05800
C1000       C  0.04407460  0.68740459  0.35079827    -0.09200
C1001       C  0.04620727  0.69296011  0.36644763    -0.25800
S1002       S  0.08576551  0.73500845  0.39456729    -0.03000
C1003       C  0.09948760  0.74261109  0.38075346    -0.16500
C1004       C  0.09822719  0.73513947  0.36587607    -0.14500
H1005       H  0.08717633  0.71663634  0.34050704     0.20900
H1006       H  0.05836760  0.71042996  0.39275935     0.16900
H1007       H  0.03798401  0.69030485  0.37622211     0.19500
H1008       H  0.10548542  0.73832141  0.35552547     0.12800
C1009       C  0.06892759  0.64581342  0.31821244     0.16700
C1010       C  0.08408055  0.63811210  0.31645215    -0.32400
C1011       C  0.08858773  0.63280667  0.30108087     0.21100
C1012       C  0.07833451  0.63469819  0.28809855     0.03300
C1013       C  0.06328165  0.64252337  0.28983958    -0.22100
C1014       C  0.05897375  0.64818168  0.30510648     0.12400
S1015       S  0.06096698  0.65303094  0.33581564    -0.05800
C1016       C  0.04423207  0.65984238  0.32529933    -0.09200
C1017       C  0.04501645  0.65632867  0.30903672    -0.25800
S1018       S  0.08624424  0.62781541  0.27038494    -0.03000
C1019       C  0.10377377  0.62274683  0.28045300    -0.16500
C1020       C  0.10322429  0.62608573  0.29672676    -0.14500
H1021       H  0.09210497  0.63652044  0.32656822     0.20900
H1022       H  0.05537158  0.64436797  0.27967541     0.16900
H1023       H  0.03564096  0.65937391  0.30047649     0.19500
H1024       H  0.11332856  0.62433649  0.30482743     0.12800
C1025       C  0.72716724  0.65265998  0.17038386     0.16700
C1026       C  0.71932371  0.66371570  0.18045450    -0.32400
C1027       C  0.72580742  0.66590662  0.19576730     0.21100
C1028       C  0.73919880  0.65716296  0.20098708     0.03300
C1029       C  0.74667468  0.64573077  0.19113223    -0.22100
C1030       C  0.74047997  0.64388229  0.17570767     0.12400
S1031       S  0.72267806  0.64985649  0.15067482    -0.05800
C1032       C  0.73901909  0.63685325  0.14966910    -0.09200
C1033       C  0.74718973  0.63465947  0.16394610    -0.25800
S1034       S  0.74656115  0.66300293  0.21906603    -0.03000
C1035       C  0.73165666  0.67763581  0.21946337    -0.16500
C1036       C  0.72123558  0.67752582  0.20648883    -0.14500
H1037       H  0.70922377  0.67096151  0.17623874     0.20900
H1038       H  0.75743174  0.63925001  0.19498680     0.16900
H1039       H  0.75802591  0.62735202  0.16546280     0.19500
H1040       H  0.71166543  0.68629517  0.20441680     0.12800
C1041       C  0.66602510  0.77741397  0.16836416     0.16700
C1042       C  0.67048245  0.78002656  0.18428177    -0.32400
C1043       C  0.68162634  0.76921877  0.19111073     0.21100
C1044       C  0.68823610  0.75650172  0.18242536     0.03300
C1045       C  0.68409423  0.75413349  0.16637500    -0.22100
C1046       C  0.67275658  0.76480426  0.15962234     0.12400
S1047       S  0.65155426  0.78823393  0.15841956    -0.05800
C1048       C  0.65456647  0.77561898  0.14230054    -0.09200
C1049       C  0.66634196  0.76381195  0.14458557    -0.25800
S1050       S  0.70049917  0.74396922  0.19325910    -0.03000
C1051       C  0.69659094  0.75594434  0.20969426    -0.16500
C1052       C  0.68654732  0.76908552  0.20671895    -0.14500
H1053       H  0.66505666  0.78970380  0.19121275     0.20900
H1054       H  0.68903508  0.74407371  0.15962291     0.16900
H1055       H  0.66956883  0.75458291  0.13594421     0.19500
H1056       H  0.68250792  0.77768606  0.21565268     0.12800
C1057       C  0.95288876  0.63807334  0.28267906     0.16700
C1058       C  0.96733877  0.64665625  0.28568031    -0.32400
C1059       C  0.97083779  0.65092573  0.30157249     0.21100
C1060       C  0.96057421  0.64669916  0.31403181     0.03300
C1061       C  0.94599772  0.63827458  0.31101199    -0.22100
C1062       C  0.94240426  0.63415332  0.29506909     0.12400
S1063       S  0.94598002  0.63252803  0.26412488    -0.05800
C1064       C  0.92861419  0.62507702  0.27307657    -0.09200
C1065       C  0.92846498  0.62679691  0.28960935    -0.25800
S1066       S  0.96762901  0.65232630  0.33254418    -0.03000
C1067       C  0.98448502  0.66078140  0.32334976    -0.16500
C1068       C  0.98437111  0.65908497  0.30680326    -0.14500
H1069       H  0.97546418  0.64998066  0.27602210     0.20900
H1070       H  0.93778019  0.63512197  0.32064959     0.16900
H1071       H  0.91822013  0.62364152  0.29715657     0.19500
H1072       H  0.99404292  0.66322508  0.29899126     0.12800
C1073       C  0.85123739  0.65686879  0.27354118     0.16700
C1074       C  0.84036023  0.66710149  0.28162017    -0.32400
C1075       C  0.82545487  0.67047141  0.27414655     0.21100
C1076       C  0.82165494  0.66400253  0.25931809     0.03300
C1077       C  0.83238278  0.65369568  0.25139024    -0.22100
C1078       C  0.84715136  0.65029698  0.25884596     0.12400
S1079       S  0.87004996  0.65126087  0.28027486    -0.05800
C1080       C  0.87210764  0.63981052  0.26317965    -0.09200
C1081       C  0.85899299  0.64049920  0.25290536    -0.25800
S1082       S  0.80337094  0.66979549  0.25187284    -0.03000
C1083       C  0.80060182  0.68102312  0.26895062    -0.16500
C1084       C  0.81326341  0.68022082  0.27985120    -0.14500
H1085       H  0.84339041  0.67224078  0.29313301     0.20900
H1086       H  0.82937594  0.64859372  0.23984907     0.16900
H1087       H  0.85814235  0.63412424  0.24162729     0.19500
H1088       H  0.81362446  0.68659497  0.29114851     0.12800
C1089       C  0.94480511  0.71350388  0.38148074     0.16700
C1090       C  0.95971696  0.70515051  0.38225169    -0.32400
C1091       C  0.96631566  0.69910392  0.36789798     0.21100
C1092       C  0.95855208  0.70150093  0.35342824     0.03300
C1093       C  0.94361044  0.70967664  0.35267816    -0.22100
C1094       C  0.93689178  0.71546427  0.36701358     0.12400
S1095       S  0.93447899  0.72153749  0.39748067    -0.05800
C1096       C  0.91917676  0.72718230  0.38455601    -0.09200
C1097       C  0.92217855  0.72313425  0.36873125    -0.25800
S1098       S  0.96876583  0.69381148  0.33731870    -0.03000
C1099       C  0.98352598  0.68665598  0.35016249    -0.16500
C1100       C  0.98060913  0.69059035  0.36610868    -0.14500
H1101       H  0.96585021  0.70335407  0.39354154     0.20900
H1102       H  0.93742645  0.71137039  0.34139810     0.16900
H1103       H  0.91383754  0.72543775  0.35899666     0.19500
H1104       H  0.98861132  0.68746637  0.37589070     0.12800
C1105       C  0.83853007  0.71365521  0.36568623     0.16700
C1106       C  0.82832704  0.70613535  0.35450064    -0.32400
C1107       C  0.81191018  0.71085718  0.35421663     0.21100
C1108       C  0.80579155  0.72211750  0.36495130     0.03300
C1109       C  0.81581981  0.72905547  0.37659185    -0.22100
C1110       C  0.83233174  0.72482191  0.37645896     0.12400
S1111       S  0.85924894  0.71162163  0.36634280    -0.05800
C1112       C  0.85953752  0.72620789  0.38108104    -0.09200
C1113       C  0.84427585  0.73190583  0.38541193    -0.25800
S1114       S  0.78645802  0.72844293  0.36090000    -0.03000
C1115       C  0.78670127  0.71608298  0.34432815    -0.16500
C1116       C  0.80083892  0.70703187  0.34259790    -0.14500
H1117       H  0.83320240  0.69786393  0.34566984     0.20900
H1118       H  0.81122660  0.73828764  0.38460828     0.16900
H1119       H  0.84206881  0.74132362  0.39416395     0.19500
H1120       H  0.80359819  0.69947721  0.33236801     0.12800
C1121       C  0.64111090  0.83182641  0.27063772     0.16700
C1122       C  0.64567692  0.81579301  0.26756755    -0.32400
C1123       C  0.65683726  0.80864271  0.27797739     0.21100
C1124       C  0.66258649  0.81681531  0.29130658     0.03300
C1125       C  0.65786738  0.83283798  0.29447141    -0.22100
C1126       C  0.64729270  0.84028241  0.28360801     0.12400
S1127       S  0.62915769  0.84301614  0.25838769    -0.05800
C1128       C  0.63297335  0.85954323  0.27044619    -0.09200
C1129       C  0.64269138  0.85630587  0.28355582    -0.25800
S1130       S  0.67704608  0.80652477  0.30173082    -0.03000
C1131       C  0.67596936  0.79148964  0.28748963    -0.16500
C1132       C  0.66445921  0.79407217  0.27572288    -0.14500
H1133       H  0.64140942  0.80948700  0.25702832     0.20900
H1134       H  0.66291868  0.83948210  0.30445541     0.16900
H1135       H  0.64663277  0.86525067  0.29219273     0.19500
H1136       H  0.66260246  0.78628465  0.26546896     0.12800
C1137       C  0.74297887  0.82157960  0.34325290     0.16700
C1138       C  0.74138744  0.83827030  0.34590283    -0.32400
C1139       C  0.75037049  0.84503846  0.35843201     0.21100
C1140       C  0.76036117  0.83556949  0.36796900     0.03300
C1141       C  0.76201107  0.81890876  0.36527379    -0.22100
C1142       C  0.75317578  0.81217879  0.35264815     0.12400
S1143       S  0.73330212  0.81113864  0.32853657    -0.05800
C1144       C  0.74338268  0.79401232  0.33490629    -0.09200
C1145       C  0.75352569  0.79631636  0.34786372    -0.25800
S1146       S  0.77004386  0.84593510  0.38270093    -0.03000
C1147       C  0.76063173  0.86327754  0.37590874    -0.16500
C1148       C  0.75052082  0.86102187  0.36289063    -0.14500
H1149       H  0.73355732  0.84565571  0.33848697     0.20900
H1150       H  0.76990632  0.81153787  0.37263774     0.16900
H1151       H  0.76086106  0.78695255  0.35335840     0.19500
H1152       H  0.74355329  0.87049515  0.35712399     0.12800
C1153       C  0.73537340  0.94651110  0.37446341     0.16700
C1154       C  0.72749238  0.96165008  0.37360065    -0.32400
C1155       C  0.71946111  0.96566745  0.35926049     0.21100
C1156       C  0.71948195  0.95521506  0.34634389     0.03300
C1157       C  0.72706665  0.94003157  0.34729613    -0.22100
C1158       C  0.73491357  0.93595246  0.36161555     0.12400
S1159       S  0.74597561  0.93915358  0.39061417    -0.05800
C1160       C  0.74951255  0.92155591  0.37997099    -0.09200
C1161       C  0.74285248  0.92170772  0.36472360    -0.25800
S1162       S  0.71003450  0.96268246  0.32973755    -0.03000
C1163       C  0.70529249  0.98006079  0.34030500    -0.16500
C1164       C  0.71121225  0.97979105  0.35595834    -0.14500
H1165       H  0.72766802  0.96995037  0.38361334     0.20900
H1166       H  0.72696278  0.93177516  0.33724448     0.16900
H1167       H  0.74370588  0.91179937  0.35627472     0.19500
H1168       H  0.70972360  0.98948747  0.36454175     0.12800
C1169       C  0.66304329  0.95442514  0.30791261     0.16700
C1170       C  0.65298781  0.94059086  0.30721219    -0.32400
C1171       C  0.64863219  0.93460236  0.29204144     0.21100
C1172       C  0.65401016  0.94206042  0.27817043     0.03300
C1173       C  0.66437550  0.95564449  0.27887984    -0.22100
C1174       C  0.66872884  0.96162869  0.29403537     0.12400
S1175       S  0.66870960  0.96438455  0.32505216    -0.05800
C1176       C  0.67917702  0.97828967  0.31344395    -0.09200
C1177       C  0.67802680  0.97516983  0.29712952    -0.25800
S1178       S  0.64699949  0.93315160  0.26095572    -0.03000
C1179       C  0.63687424  0.91904130  0.27251038    -0.16500
C1180       C  0.63900664  0.92128887  0.28885667    -0.14500
H1181       H  0.64853108  0.93489337  0.31802282     0.20900
H1182       H  0.66866865  0.96146399  0.26806861     0.16900
H1183       H  0.68325334  0.98283211  0.28794254     0.19500
H1184       H  0.63392874  0.91341465  0.29794957     0.12800
C1185       C  0.71923856  0.06416138  0.34387749     0.16700
C1186       C  0.72924364  0.07801373  0.34467071    -0.32400
C1187       C  0.73352077  0.08399249  0.35987073     0.21100
C1188       C  0.72818540  0.07652708  0.37373827     0.03300
C1189       C  0.71812202  0.06267778  0.37293948    -0.22100
C1190       C  0.71378592  0.05672124  0.35771653     0.12400
S1191       S  0.71314742  0.05462477  0.32661946    -0.05800
C1192       C  0.70305808  0.04035986  0.33809356    -0.09200
C1193       C  0.70451299  0.04316680  0.35447227    -0.25800
S1194       S  0.73443318  0.08613750  0.39097603    -0.03000
C1195       C  0.74419061  0.10050490  0.37936867    -0.16500
C1196       C  0.74260777  0.09764777  0.36302962    -0.14500
H1197       H  0.73351849  0.08390258  0.33388812     0.20900
H1198       H  0.71382591  0.05680322  0.38371840     0.16900
H1199       H  0.69950611  0.03528031  0.36359033     0.19500
H1200       H  0.74738126  0.10560332  0.35384396     0.12800
C1201       C  0.74941229  0.18453240  0.35829236     0.16700
C1202       C  0.75250539  0.19973860  0.35155192    -0.32400
C1203       C  0.74254664  0.20471318  0.33895687     0.21100
C1204       C  0.72982035  0.19516190  0.33348302     0.03300
C1205       C  0.72668159  0.17991468  0.34028140    -0.22100
C1206       C  0.73691219  0.17475782  0.35267688     0.12400
S1207       S  0.76067763  0.17612955  0.37314557    -0.05800
C1208       C  0.74871342  0.15904025  0.37158892    -0.09200
C1209       C  0.73648746  0.16000040  0.36024654    -0.25800
S1210       S  0.71973973  0.20312830  0.31748506    -0.03000
C1211       C  0.73311590  0.21925512  0.31798826    -0.16500
C1212       C  0.74447187  0.21853717  0.33015816    -0.14500
H1213       H  0.76252773  0.20718446  0.35566181     0.20900
H1214       H  0.71701728  0.17222905  0.33580329     0.16900
H1215       H  0.72792474  0.15038521  0.35756411     0.19500
H1216       H  0.75413826  0.22728677  0.33200191     0.12800
C1217       C  0.64841366  0.06778030  0.27231665     0.16700
C1218       C  0.65873059  0.05431008  0.27417057    -0.32400
C1219       C  0.66491868  0.05105431  0.28951387     0.21100
C1220       C  0.66091971  0.06064009  0.30250082     0.03300
C1221       C  0.65072633  0.07420781  0.30061909    -0.22100
C1222       C  0.64465565  0.07756552  0.28524295     0.12400
S1223       S  0.64033268  0.07435039  0.25455786    -0.05800
C1224       C  0.63196370  0.09062778  0.26455724    -0.09200
C1225       C  0.63534657  0.09069293  0.28084038    -0.25800
S1226       S  0.66901831  0.05402416  0.32024924    -0.03000
C1227       C  0.67802471  0.03813636  0.31010648    -0.16500
C1228       C  0.67481974  0.03834042  0.29374466    -0.14500
H1229       H  0.66188035  0.04673904  0.26406983     0.20900
H1230       H  0.64769217  0.08185369  0.31069642     0.16900
H1231       H  0.63193496  0.10039292  0.28888886     0.19500
H1232       H  0.67901606  0.02921194  0.28540925     0.12800
C1233       C  0.66311085  0.16669207  0.25785414     0.16700
C1234       C  0.67582802  0.17657138  0.26325905    -0.32400
C1235       C  0.68021670  0.18985754  0.25370238     0.21100
C1236       C  0.67237748  0.19316912  0.23942322     0.03300
C1237       C  0.65959890  0.18338986  0.23411752    -0.22100
C1238       C  0.65515460  0.17018204  0.24367754     0.12400
S1239       S  0.65634778  0.14953465  0.26720494    -0.05800
C1240       C  0.64268912  0.14714572  0.25179091    -0.09200
C1241       C  0.64329241  0.15915470  0.24026784    -0.25800
S1242       S  0.67919649  0.21009300  0.22976246    -0.03000
C1243       C  0.69252255  0.21296108  0.24530672    -0.16500
C1244       C  0.69186848  0.20114333  0.25710154    -0.14500
H1245       H  0.68203900  0.17401086  0.27436883     0.20900
H1246       H  0.65336845  0.18597054  0.22302478     0.16900
H1247       H  0.63588443  0.15944741  0.22958955     0.19500
H1248       H  0.69908542  0.20116407  0.26791239     0.12800
C1249       C  0.76124086  0.35535184  0.18114834     0.16700
C1250       C  0.76691094  0.36832652  0.17193165    -0.32400
C1251       C  0.75723167  0.37334256  0.15911813     0.21100
C1252       C  0.74262042  0.36575803  0.15549332     0.03300
C1253       C  0.73685954  0.35289408  0.16482259    -0.22100
C1254       C  0.74650917  0.34792103  0.17769286     0.12400
S1255       S  0.77106472  0.34756836  0.19735158    -0.05800
C1256       C  0.75501302  0.33431783  0.19962188    -0.09200
C1257       C  0.74287744  0.33583144  0.18825257    -0.25800
S1258       S  0.73312911  0.37317214  0.13891771    -0.03000
C1259       C  0.74899498  0.38667904  0.13699678    -0.16500
C1260       C  0.76084093  0.38549795  0.14866076    -0.14500
H1261       H  0.77836796  0.37423185  0.17460267     0.20900
H1262       H  0.72542043  0.34696788  0.16212776     0.16900
H1263       H  0.73179491  0.32870702  0.18794351     0.19500
H1264       H  0.77181195  0.39278443  0.14914269     0.12800
C1265       C  0.65633169  0.28581062  0.19203643     0.16700
C1266       C  0.64242767  0.27994066  0.18441153    -0.32400
C1267       C  0.63910713  0.28579916  0.16910465     0.21100
C1268       C  0.64883316  0.29745603  0.16187265     0.03300
C1269       C  0.66235358  0.30393209  0.16983847    -0.22100
C1270       C  0.66602042  0.29761423  0.18496971     0.12400
S1271       S  0.66401174  0.27782046  0.20916492    -0.05800
C1272       C  0.68055804  0.29037758  0.20678547    -0.09200
C1273       C  0.67985583  0.30054805  0.19360980    -0.25800
S1274       S  0.64416047  0.30105277  0.14234047    -0.03000
C1275       C  0.62923005  0.28641278  0.14393390    -0.16500
C1276       C  0.62765483  0.27967029  0.15898455    -0.14500
H1277       H  0.63520817  0.27031395  0.18967623     0.20900
H1278       H  0.67032352  0.31260135  0.16403347     0.16900
H1279       H  0.68953622  0.30864413  0.18987039     0.19500
H1280       H  0.61949056  0.26980122  0.16201563     0.12800
C1281       C  0.82465172  0.25502336  0.33308937     0.16700
C1282       C  0.83390999  0.24839215  0.34550672    -0.32400
C1283       C  0.85015144  0.25341613  0.34677917     0.21100
C1284       C  0.85684528  0.26442348  0.33607394     0.03300
C1285       C  0.84756771  0.27115698  0.32379669    -0.22100
C1286       C  0.83132951  0.26629202  0.32263703     0.12400
S1287       S  0.80485705  0.25030161  0.32926644    -0.05800
C1288       C  0.80562161  0.26382519  0.31359026    -0.09200
C1289       C  0.82038946  0.27157021  0.31153690    -0.25800
S1290       S  0.87655031  0.26932383  0.33970644    -0.03000
C1291       C  0.87576147  0.25673222  0.35611097    -0.16500
C1292       C  0.86100879  0.24888704  0.35835224    -0.14500
H1293       H  0.82867393  0.23977627  0.35382850     0.20900
H1294       H  0.85275255  0.27991185  0.31558247     0.16900
H1295       H  0.82305739  0.28031905  0.30223551     0.19500
H1296       H  0.85819156  0.24085097  0.36821336     0.12800
C1297       C  0.84446604  0.37078925  0.28137458     0.16700
C1298       C  0.83507895  0.35824819  0.28801868    -0.32400
C1299       C  0.82004936  0.35476912  0.28081495     0.21100
C1300       C  0.81443914  0.36369351  0.26790617     0.03300
C1301       C  0.82350952  0.37656604  0.26168321    -0.22100
C1302       C  0.83867979  0.37970749  0.26855501     0.12400
S1303       S  0.86408934  0.37530358  0.28659070    -0.05800
C1304       C  0.86447332  0.38909217  0.27111456    -0.09200
C1305       C  0.84995879  0.39036334  0.26282137    -0.25800
S1306       S  0.79712015  0.35638348  0.25943278    -0.03000
C1307       C  0.79745882  0.34093840  0.27325892    -0.16500
C1308       C  0.81015060  0.34178892  0.28413076    -0.14500
H1309       H  0.83971409  0.35089352  0.29770533     0.20900
H1310       H  0.81938476  0.38318561  0.25127859     0.16900
H1311       H  0.84806829  0.39793487  0.25241369     0.19500
H1312       H  0.81271954  0.33270577  0.29312236     0.12800
C1313       C  0.70197099  0.36791318  0.05150356     0.16700
C1314       C  0.70272740  0.37773094  0.06519196    -0.32400
C1315       C  0.71753610  0.38565418  0.06851341     0.21100
C1316       C  0.73089702  0.38420933  0.05850836     0.03300
C1317       C  0.73023101  0.37412712  0.04503463    -0.22100
C1318       C  0.71558003  0.36585308  0.04198534     0.12400
S1319       S  0.68492602  0.35807208  0.04461847    -0.05800
C1320       C  0.69638966  0.35056755  0.02895859    -0.09200
C1321       C  0.71262395  0.35559191  0.02948210    -0.25800
S1322       S  0.74792253  0.39427880  0.06501962    -0.03000
C1323       C  0.73716872  0.39992755  0.08177523    -0.16500
C1324       C  0.72109267  0.39460180  0.08186429    -0.14500
H1325       H  0.69227642  0.37906196  0.07296787     0.20900
H1326       H  0.74074758  0.37261148  0.03737328     0.16900
H1327       H  0.72172047  0.35256262  0.02060143     0.19500
H1328       H  0.71279497  0.39616881  0.09180654     0.12800
C1329       C  0.63318087  0.29436905  0.06145295     0.16700
C1330       C  0.63434864  0.30245682  0.04666156    -0.32400
C1331       C  0.64939977  0.30967677  0.04257506     0.21100
C1332       C  0.66274268  0.30865318  0.05257453     0.03300
C1333       C  0.66154150  0.30073698  0.06734517    -0.22100
C1334       C  0.64651339  0.29374024  0.07151046     0.12400
S1335       S  0.61589596  0.28548439  0.06932309    -0.05800
C1336       C  0.62677027  0.28126268  0.08645366    -0.09200
C1337       C  0.64292542  0.28628206  0.08567983    -0.25800
S1338       S  0.68008401  0.31747475  0.04513877    -0.03000
C1339       C  0.66925378  0.32321993  0.02842102    -0.16500
C1340       C  0.65300728  0.31812485  0.02884633    -0.14500
H1341       H  0.62396273  0.30324710  0.03876699     0.20900
H1342       H  0.67187453  0.30013349  0.07532619     0.16900
H1343       H  0.65150967  0.28520556  0.09542386     0.19500
H1344       H  0.64425938  0.32028670  0.01943726     0.12800
C1345       C  0.96083405  0.31425569  0.34304181     0.16700
C1346       C  0.94677187  0.30470418  0.34208486    -0.32400
C1347       C  0.94156669  0.29669775  0.35598181     0.21100
C1348       C  0.94978916  0.29817039  0.37032124     0.03300
C1349       C  0.96365958  0.30813251  0.37138405    -0.22100
C1350       C  0.96897821  0.31606559  0.35739586     0.12400
S1351       S  0.97005092  0.32352442  0.32713811    -0.05800
C1352       C  0.98496239  0.33038481  0.33995965    -0.09200
C1353       C  0.98271404  0.32542298  0.35572411    -0.25800
S1354       S  0.94176868  0.28653774  0.38551632    -0.03000
C1355       C  0.92717999  0.27970939  0.37232985    -0.16500
C1356       C  0.92864478  0.28632742  0.35709958    -0.14500
H1357       H  0.94043633  0.30315729  0.33086050     0.20900
H1358       H  0.97027806  0.30929110  0.38248978     0.16900
H1359       H  0.99106264  0.32804060  0.36537604     0.19500
H1360       H  0.92074057  0.28350092  0.34714136     0.12800
C1361       C  0.94969520  0.38361593  0.27934189     0.16700
C1362       C  0.96513720  0.37626503  0.28055711    -0.32400
C1363       C  0.97008126  0.37039448  0.29563810     0.21100
C1364       C  0.96021990  0.37198843  0.30895963     0.03300
C1365       C  0.94475838  0.37917550  0.30771787    -0.22100
C1366       C  0.93972871  0.38481943  0.29263483     0.12400
S1367       S  0.94105416  0.39112136  0.26210926    -0.05800
C1368       C  0.92368998  0.39563613  0.27288495    -0.09200
C1369       C  0.92488253  0.39155020  0.28898844    -0.25800
S1370       S  0.96864190  0.36454398  0.32623121    -0.03000
C1371       C  0.98553999  0.35855460  0.31539822    -0.16500
C1372       C  0.98452711  0.36271825  0.29924196    -0.14500
H1373       H  0.97290801  0.37504263  0.27017554     0.20900
H1374       H  0.93691261  0.38022605  0.31806513     0.16900
H1375       H  0.91512313  0.39303092  0.29757188     0.19500
H1376       H  0.99395178  0.36025154  0.29052649     0.12800
C1377       C  0.07920090  0.38993188  0.28332603     0.16700
C1378       C  0.06414934  0.38179887  0.28387773    -0.32400
C1379       C  0.06015604  0.37326410  0.29795030     0.21100
C1380       C  0.07040706  0.37314920  0.31102210     0.03300
C1381       C  0.08535742  0.38134299  0.31052162    -0.22100
C1382       C  0.08951221  0.38955969  0.29637940     0.12400
S1383       S  0.08732509  0.39949617  0.26685538    -0.05800
C1384       C  0.10498518  0.40249789  0.27757565    -0.09200
C1385       C  0.10411736  0.39686537  0.29320794    -0.25800
S1386       S  0.06306847  0.36250164  0.32708612    -0.03000
C1387       C  0.04587233  0.35795711  0.31618406    -0.16500
C1388       C  0.04629477  0.36439915  0.30072586    -0.14500
H1389       H  0.05609581  0.38176238  0.27366202     0.20900
H1390       H  0.09357593  0.38103784  0.32060662     0.16900
H1391       H  0.11420273  0.39700848  0.30151837     0.19500
H1392       H  0.03669202  0.36304556  0.29199212     0.12800
C1393       C  0.18640199  0.37355416  0.27308925     0.16700
C1394       C  0.20044602  0.36509569  0.26881919    -0.32400
C1395       C  0.20158982  0.34891399  0.27363359     0.21100
C1396       C  0.18976984  0.34168938  0.28312977     0.03300
C1397       C  0.17591887  0.35034726  0.28786876    -0.22100
C1398       C  0.17433023  0.36629741  0.28225427     0.12400
S1399       S  0.18141370  0.39202178  0.26555506    -0.05800
C1400       C  0.16255767  0.38971927  0.27420623    -0.09200
C1401       C  0.16062909  0.37568172  0.28315241    -0.25800
S1402       S  0.19263864  0.32143569  0.28624134    -0.03000
C1403       C  0.20943460  0.32268048  0.27396930    -0.16500
C1404       C  0.21292568  0.33807337  0.26838181    -0.14500
H1405       H  0.20945691  0.37048079  0.26098114     0.20900
H1406       H  0.16625291  0.34451991  0.29456464     0.16900
H1407       H  0.14935863  0.37186158  0.28874292     0.19500
H1408       H  0.22266134  0.34098075  0.26011918     0.12800
C1409       C  0.07331161  0.28303306  0.35977619     0.16700
C1410       C  0.06197584  0.28832104  0.34834131    -0.32400
C1411       C  0.05797487  0.30488922  0.34787447     0.21100
C1412       C  0.06474101  0.31576003  0.35855456     0.03300
C1413       C  0.07634548  0.31047913  0.36995773    -0.22100
C1414       C  0.08056051  0.29380349  0.37027801     0.12400
S1415       S  0.08023495  0.26358334  0.36134457    -0.05800
C1416       C  0.09343899  0.26961848  0.37624587    -0.09200
C1417       C  0.09221654  0.28618358  0.37976142    -0.25800
S1418       S  0.05694080  0.33508975  0.35670985    -0.03000
C1419       C  0.04496422  0.32862728  0.34087184    -0.16500
C1420       C  0.04684630  0.31211738  0.33779175    -0.14500
H1421       H  0.05655067  0.27983082  0.34004114     0.20900
H1422       H  0.08181653  0.31898020  0.37821055     0.16900
H1423       H  0.10021556  0.29253007  0.38790203     0.19500
H1424       H  0.03965199  0.30549426  0.32914721     0.12800
C1425       C  0.15813821  0.22938243  0.33545725     0.16700
C1426       C  0.17176089  0.22340009  0.32734041    -0.32400
C1427       C  0.17644646  0.23140869  0.31331648     0.21100
C1428       C  0.16758907  0.24437451  0.30731834     0.03300
C1429       C  0.15343982  0.24971265  0.31491868    -0.22100
C1430       C  0.14914767  0.24214705  0.32926299     0.12400
S1431       S  0.15257019  0.22369407  0.35426048    -0.05800
C1432       C  0.13817503  0.23884965  0.35379559    -0.09200
C1433       C  0.13743048  0.24738335  0.33959608    -0.25800
S1434       S  0.17670870  0.25434963  0.29193623    -0.03000
C1435       C  0.19268544  0.24102101  0.29372005    -0.16500
C1436       C  0.19074159  0.22916221  0.30524729    -0.14500
H1437       H  0.17914567  0.21383358  0.33241511     0.20900
H1438       H  0.14685641  0.26019191  0.31057146     0.16900
H1439       H  0.12962630  0.25773098  0.33743637     0.19500
H1440       H  0.19992704  0.22035271  0.30849420     0.12800
C1441       C  0.26047817  0.16744025  0.34249807     0.16700
C1442       C  0.25354761  0.17928999  0.33275395    -0.32400
C1443       C  0.26131868  0.18273358  0.31828905     0.21100
C1444       C  0.27536455  0.17473587  0.31358835     0.03300
C1445       C  0.28217974  0.16261633  0.32324775    -0.22100
C1446       C  0.27440500  0.15921077  0.33782238     0.12400
S1447       S  0.25307154  0.16202778  0.36072366    -0.05800
C1448       C  0.26879963  0.14836793  0.36211753    -0.09200
C1449       C  0.27921173  0.14812090  0.34904735    -0.25800
S1450       S  0.28324783  0.18141256  0.29583814    -0.03000
C1451       C  0.26739150  0.19505763  0.29487814    -0.16500
C1452       C  0.25662544  0.19425079  0.30757377    -0.14500
H1453       H  0.24268705  0.18573765  0.33640539     0.20900
H1454       H  0.29315682  0.15631646  0.31969243     0.16900
H1455       H  0.28973692  0.14031921  0.34786168     0.19500
H1456       H  0.24607370  0.20196697  0.30908220     0.12800
C1457       C  0.33465437  0.15062782  0.22647653     0.16700
C1458       C  0.31991472  0.15827429  0.22992107    -0.32400
C1459       C  0.31686447  0.17316240  0.22251864     0.21100
C1460       C  0.32769725  0.17995461  0.21169227     0.03300
C1461       C  0.34233610  0.17208133  0.20793626    -0.22100
C1462       C  0.34565936  0.15740675  0.21580063     0.12400
S1463       S  0.34143829  0.13371463  0.23599778    -0.05800
C1464       C  0.35953165  0.13594268  0.22584835    -0.09200
C1465       C  0.35996629  0.14889609  0.21526180    -0.25800
S1466       S  0.32241049  0.19896609  0.20537837    -0.03000
C1467       C  0.30578954  0.19785847  0.21791709    -0.16500
C1468       C  0.30424705  0.18329034  0.22601195    -0.14500
H1469       H  0.31160938  0.15330395  0.23871710     0.20900
H1470       H  0.35114191  0.17759609  0.19996647     0.16900
H1471       H  0.37050473  0.15247752  0.20831283     0.19500
H1472       H  0.29499129  0.18068863  0.23488472     0.12800
C1473       C  0.36378464  0.26966212  0.16172195     0.16700
C1474       C  0.35529006  0.26475960  0.17532645    -0.32400
C1475       C  0.34109531  0.27317604  0.17916088     0.21100
C1476       C  0.33585403  0.28636204  0.17026585     0.03300
C1477       C  0.34448136  0.29139087  0.15664212    -0.22100
C1478       C  0.35839566  0.28249189  0.15240224     0.12400
S1479       S  0.38026009  0.25978159  0.15440279    -0.05800
C1480       C  0.37960680  0.27253435  0.13814598    -0.09200
C1481       C  0.36750047  0.28423145  0.13873549    -0.25800
S1482       S  0.31779859  0.29436512  0.17664415    -0.03000
C1483       C  0.31715471  0.27934504  0.19096547    -0.16500
C1484       C  0.33043084  0.26907944  0.19098515    -0.14500
H1485       H  0.35917939  0.25434520  0.18221734     0.20900
H1486       H  0.34014189  0.30128913  0.14930092     0.16900
H1487       H  0.36508286  0.29301298  0.12942214     0.19500
H1488       H  0.33190509  0.25876389  0.19886926     0.12800
C1489       C  0.24508927  0.34819452  0.14405004     0.16700
C1490       C  0.24841145  0.33373781  0.15203548    -0.32400
C1491       C  0.24414854  0.33282916  0.16814170     0.21100
C1492       C  0.23636830  0.34550020  0.17591952     0.03300
C1493       C  0.23283241  0.35996737  0.16783831    -0.22100
C1494       C  0.23758203  0.36106739  0.15177406     0.12400
S1495       S  0.25100598  0.35209963  0.12501119    -0.05800
C1496       C  0.24364160  0.37145043  0.12747369    -0.09200
C1497       C  0.23657659  0.37450719  0.14220957    -0.25800
S1498       S  0.23274868  0.34200695  0.19571632    -0.03000
C1499       C  0.24234449  0.32359263  0.19341664    -0.16500
C1500       C  0.24765657  0.32027535  0.17812320    -0.14500
H1501       H  0.25467047  0.32386371  0.14611969     0.20900
H1502       H  0.22719201  0.37009122  0.17393447     0.16900
H1503       H  0.23178153  0.38612314  0.14598661     0.19500
H1504       H  0.25401229  0.30934787  0.17456784     0.12800
C1505       C  0.35739857  0.95837920  0.29697449     0.16700
C1506       C  0.35541655  0.94558638  0.28608132    -0.32400
C1507       C  0.36913719  0.94051189  0.27735619     0.21100
C1508       C  0.38423449  0.94768945  0.27944072     0.03300
C1509       C  0.38624378  0.96040621  0.29044677    -0.22100
C1510       C  0.37247895  0.96558893  0.29908001     0.12400
S1511       S  0.34204071  0.96715216  0.30781915    -0.05800
C1512       C  0.35604739  0.98076979  0.31534583    -0.09200
C1513       C  0.37178271  0.97834246  0.30961447    -0.25800
S1514       S  0.39920153  0.94000119  0.26725785    -0.03000
C1515       C  0.38493265  0.92702269  0.25917875    -0.16500
C1516       C  0.36947598  0.92870105  0.26583103    -0.14500
H1517       H  0.34360633  0.94006532  0.28421473     0.20900
H1518       H  0.39795088  0.96624110  0.29197644     0.16900
H1519       H  0.38208653  0.98599361  0.31251382     0.19500
H1520       H  0.35888761  0.92176434  0.26225630     0.12800
C1521       C  0.32586665  0.95668487  0.35949205     0.16700
C1522       C  0.32437296  0.94198690  0.36789071    -0.32400
C1523       C  0.30919588  0.93831277  0.37487001     0.21100
C1524       C  0.29614470  0.94887158  0.37378846     0.03300
C1525       C  0.29762573  0.96351296  0.36535240    -0.22100
C1526       C  0.31269153  0.96703913  0.35814916     0.12400
S1527       S  0.34327234  0.96369715  0.35037987    -0.05800
C1528       C  0.33260295  0.98071518  0.34451355    -0.09200
C1529       C  0.31640673  0.98062600  0.34945877    -0.25800
S1530       S  0.27848419  0.94166539  0.38215510    -0.03000
C1531       C  0.28865188  0.92405834  0.38689154    -0.16500
C1532       C  0.30494640  0.92409378  0.38234386    -0.14500
H1533       H  0.33451722  0.93367044  0.36876098     0.20900
H1534       H  0.28738655  0.97167875  0.36419660     0.16900
H1535       H  0.30787144  0.99036980  0.34725017     0.19500
H1536       H  0.31294774  0.91371868  0.38338757     0.12800
C1537       C  0.32796542  0.06534050  0.35973662     0.16700
C1538       C  0.32650082  0.08087775  0.36650826    -0.32400
C1539       C  0.31166618  0.08484514  0.37398821     0.21100
C1540       C  0.29907748  0.07368725  0.37513216     0.03300
C1541       C  0.30047032  0.05830801  0.36818175    -0.22100
C1542       C  0.31504443  0.05456762  0.36026701     0.12400
S1543       S  0.34484941  0.05790601  0.35012070    -0.05800
C1544       C  0.33407020  0.04032708  0.34611629    -0.09200
C1545       C  0.31833372  0.04048093  0.35231151    -0.25800
S1546       S  0.28183316  0.08096736  0.38402271    -0.03000
C1547       C  0.29136150  0.09948147  0.38567947    -0.16500
C1548       C  0.30722696  0.09974034  0.37990203    -0.14500
H1549       H  0.33633508  0.08959672  0.36568581     0.20900
H1550       H  0.29045642  0.04975731  0.36856891     0.16900
H1551       H  0.30964453  0.03066044  0.35115216     0.19500
H1552       H  0.31470419  0.11054304  0.37910551     0.12800
C1553       C  0.35816569  0.06405292  0.29931593     0.16700
C1554       C  0.35603630  0.07743673  0.28924141    -0.32400
C1555       C  0.36940890  0.08259911  0.28011049     0.21100
C1556       C  0.38440551  0.07502965  0.28105526     0.03300
C1557       C  0.38665871  0.06181465  0.29148253    -0.22100
C1558       C  0.37314902  0.05647451  0.30049748     0.12400
S1559       S  0.34291225  0.05488766  0.30992519    -0.05800
C1560       C  0.35683982  0.04072805  0.31645182    -0.09200
C1561       C  0.37247786  0.04315744  0.31038690    -0.25800
S1562       S  0.39867694  0.08269789  0.26797382    -0.03000
C1563       C  0.38413860  0.09609767  0.26111167    -0.16500
C1564       C  0.36923758  0.09464815  0.26889639    -0.14500
H1565       H  0.34426766  0.08321477  0.28810512     0.20900
H1566       H  0.39824832  0.05562374  0.29213818     0.16900
H1567       H  0.38267748  0.03516393  0.31258177     0.19500
H1568       H  0.35853149  0.10177116  0.26616229     0.12800
C1569       C  0.35502959  0.29882216  0.04298003     0.16700
C1570       C  0.35838830  0.28531238  0.05275736    -0.32400
C1571       C  0.37239558  0.28580181  0.06244094     0.21100
C1572       C  0.38258507  0.29919242  0.06241985     0.03300
C1573       C  0.37914872  0.31278079  0.05272993    -0.22100
C1574       C  0.36513501  0.31229587  0.04302690     0.12400
S1575       S  0.33917743  0.30018492  0.02975815    -0.05800
C1576       C  0.34597117  0.31925396  0.02432430    -0.09200
C1577       C  0.35997221  0.32407441  0.03239053    -0.25800
S1578       S  0.39844421  0.29769531  0.07568834    -0.03000
C1579       C  0.39149778  0.27870738  0.08127607    -0.16500
C1580       C  0.37736749  0.27413383  0.07324697    -0.14500
H1581       H  0.35043508  0.27482782  0.05277495     0.20900
H1582       H  0.38704370  0.32330599  0.05278827     0.16900
H1583       H  0.36643985  0.33528105  0.03005823     0.19500
H1584       H  0.37048966  0.26324772  0.07592358     0.12800
C1585       C  0.30648614  0.35416907  0.04915401     0.16700
C1586       C  0.29680843  0.35455181  0.06289829    -0.32400
C1587       C  0.28916186  0.36922821  0.06682303     0.21100
C1588       C  0.29105059  0.38309349  0.05767530     0.03300
C1589       C  0.30101089  0.38278781  0.04398708    -0.22100
C1590       C  0.30861073  0.36798202  0.03997468     0.12400
S1591       S  0.31544124  0.33708818  0.04154846    -0.05800
C1592       C  0.32213627  0.34849838  0.02558236    -0.09200
C1593       C  0.31780614  0.36486608  0.02663633    -0.25800
S1594       S  0.27997136  0.39945537  0.06449736    -0.03000
C1595       C  0.27281101  0.38733621  0.07980944    -0.16500
C1596       C  0.27888616  0.37159373  0.07939076    -0.14500
H1597       H  0.29493491  0.34373121  0.07001269     0.20900
H1598       H  0.30245005  0.39346357  0.03657824     0.16900
H1599       H  0.32048511  0.37389562  0.01760641     0.19500
H1600       H  0.27579345  0.36211349  0.08783510     0.12800
C1601       C  0.07179071  0.36284780  0.69828849     0.16700
C1602       C  0.08791873  0.36542811  0.70316774    -0.32400
C1603       C  0.09128236  0.37935505  0.71229839     0.21100
C1604       C  0.07917292  0.39018964  0.71657834     0.03300
C1605       C  0.06312263  0.38782813  0.71128971    -0.22100
C1606       C  0.05980819  0.37398333  0.70197567     0.12400
S1607       S  0.06491085  0.34627834  0.68793263    -0.05800
C1608       C  0.04558099  0.35458769  0.68794634    -0.09200
C1609       C  0.04499290  0.36954769  0.69584361    -0.25800
S1610       S  0.08578528  0.40591747  0.72841516    -0.03000
C1611       C  0.10517410  0.39802336  0.72719835    -0.16500
C1612       C  0.10615806  0.38387685  0.71817313    -0.14500
H1613       H  0.09741059  0.35686156  0.70013931     0.20900
H1614       H  0.05359493  0.39631741  0.71441795     0.16900
H1615       H  0.03425834  0.37700844  0.69715225     0.19500
H1616       H  0.11725378  0.37711875  0.71609001     0.12800
C1617       C  0.19240240  0.39442790  0.72737019     0.16700
C1618       C  0.20859274  0.38996515  0.72967744    -0.32400
C1619       C  0.21536570  0.37902368  0.71884143     0.21100
C1620       C  0.20669265  0.37334191  0.70579030     0.03300
C1621       C  0.19056319  0.37821857  0.70319448    -0.22100
C1622       C  0.18349687  0.38856571  0.71454174     0.12400
S1623       S  0.18155393  0.40560610  0.74061056    -0.05800
C1624       C  0.16460220  0.40200389  0.72910355    -0.09200
C1625       C  0.16741397  0.39294098  0.71543968    -0.25800
S1626       S  0.21637127  0.35841094  0.69537593    -0.03000
C1627       C  0.23179447  0.35931802  0.70928866    -0.16500
C1628       C  0.22985653  0.37121726  0.72076005    -0.14500
H1629       H  0.21524969  0.39393923  0.74012289     0.20900
H1630       H  0.18349611  0.37324658  0.69345018     0.16900
H1631       H  0.15812477  0.38917722  0.70706272     0.19500
H1632       H  0.23783231  0.37296816  0.73090131     0.12800
C1633       C  0.06693730  0.32055069  0.64287729     0.16700
C1634       C  0.07961776  0.31879531  0.63167616    -0.32400
C1635       C  0.08453015  0.30293867  0.62762025     0.21100
C1636       C  0.07702107  0.28947179  0.63428482     0.03300
C1637       C  0.06461147  0.29123179  0.64566719    -0.22100
C1638       C  0.05987126  0.30702527  0.64986190     0.12400
S1639       S  0.05828400  0.33858619  0.64868249    -0.05800
C1640       C  0.04540538  0.32776792  0.66109516    -0.09200
C1641       C  0.04773835  0.31108174  0.66037312    -0.25800
S1642       S  0.08494952  0.27131712  0.62821563    -0.03000
C1643       C  0.09875614  0.28184167  0.61669190    -0.16500
C1644       C  0.09715395  0.29861796  0.61764488    -0.14500
H1645       H  0.08536579  0.32930827  0.62632816     0.20900
H1646       H  0.05891088  0.28071790  0.65107106     0.16900
H1647       H  0.04028518  0.30229388  0.66665381     0.19500
H1648       H  0.10539861  0.30718565  0.61207131     0.12800
C1649       C  0.19409748  0.28524210  0.66390735     0.16700
C1650       C  0.17883933  0.28921492  0.65764517    -0.32400
C1651       C  0.17177145  0.27821653  0.64696315     0.21100
C1652       C  0.17946699  0.26384522  0.64281820     0.03300
C1653       C  0.19451077  0.25968444  0.64939563    -0.22100
C1654       C  0.20165653  0.27075412  0.65992678     0.12400
S1655       S  0.20534471  0.29756804  0.67593830    -0.05800
C1656       C  0.22040593  0.28305984  0.67549589    -0.09200
C1657       C  0.21668722  0.26933984  0.66670854    -0.25800
S1658       S  0.16948870  0.25265800  0.62883702    -0.03000
C1659       C  0.15473265  0.26744645  0.62865285    -0.16500
C1660       C  0.15742285  0.28026637  0.63898575    -0.14500
H1661       H  0.17297228  0.30058725  0.66058329     0.20900
H1662       H  0.20061654  0.24855225  0.64606012     0.16900
H1663       H  0.22479110  0.25915418  0.66488405     0.19500
H1664       H  0.14956597  0.29073085  0.64022423     0.12800
C1665       C  0.35678760  0.18040715  0.73604864     0.16700
C1666       C  0.34507002  0.19078524  0.72947142    -0.32400
C1667       C  0.34528848  0.20707493  0.73434740     0.21100
C1668       C  0.35649563  0.21269929  0.74541657     0.03300
C1669       C  0.36822230  0.20237809  0.75187856    -0.22100
C1670       C  0.36813268  0.18619593  0.74688535     0.12400
S1671       S  0.35879904  0.16025426  0.73170100    -0.05800
C1672       C  0.37521625  0.15978346  0.74448783    -0.09200
C1673       C  0.37874009  0.17446885  0.75171240    -0.25800
S1674       S  0.35469146  0.23272455  0.75005126    -0.03000
C1675       C  0.33885899  0.23368318  0.73670897    -0.16500
C1676       C  0.33515457  0.21915166  0.72918917    -0.14500
H1677       H  0.33625862  0.18639574  0.72089488     0.20900
H1678       H  0.37708398  0.20678802  0.76039623     0.16900
H1679       H  0.38859555  0.17649366  0.76004947     0.19500
H1680       H  0.32553879  0.21751782  0.72050707     0.12800
C1681       C  0.28622568  0.21688367  0.64603440     0.16700
C1682       C  0.27889876  0.20670117  0.63476172    -0.32400
C1683       C  0.28378585  0.19042101  0.63441661     0.21100
C1684       C  0.29561999  0.18451253  0.64464276     0.03300
C1685       C  0.30326806  0.19482043  0.65566409    -0.22100
C1686       C  0.29822318  0.21109763  0.65616175     0.12400
S1687       S  0.28041327  0.23639476  0.64973187    -0.05800
C1688       C  0.29427253  0.23683157  0.66514018    -0.09200
C1689       C  0.30309955  0.22260754  0.66698252    -0.25800
S1690       S  0.29897826  0.16407873  0.64295459    -0.03000
C1691       C  0.28426317  0.16354821  0.62831450    -0.16500
C1692       C  0.27733038  0.17851439  0.62498612    -0.14500
H1693       H  0.26932587  0.21111476  0.62703237     0.20900
H1694       H  0.31231039  0.19022638  0.66388590     0.16900
H1695       H  0.31168896  0.22037777  0.67652339     0.19500
H1696       H  0.26774467  0.18054081  0.61635612     0.12800
C1697       C  0.28399967  0.38031037  0.93557861     0.16700
C1698       C  0.29494585  0.38068347  0.94849092    -0.32400
C1699       C  0.30239451  0.36598305  0.95304965     0.21100
C1700       C  0.29890207  0.35155292  0.94531267     0.03300
C1701       C  0.28807167  0.35120406  0.93241389    -0.22100
C1702       C  0.28085910  0.36587101  0.92770259     0.12400
S1703       S  0.27378851  0.39672203  0.92779688    -0.05800
C1704       C  0.26557442  0.38395854  0.91357398    -0.09200
C1705       C  0.27042575  0.36790367  0.91514347    -0.25800
S1706       S  0.30844832  0.33490936  0.95315247    -0.03000
C1707       C  0.31769084  0.34745821  0.96691811    -0.16500
C1708       C  0.31323050  0.36373096  0.96534296    -0.14500
H1709       H  0.29757864  0.39191410  0.95467564     0.20900
H1710       H  0.28538554  0.33995847  0.92627541     0.16900
H1711       H  0.26663216  0.35815602  0.90731395     0.19500
H1712       H  0.31732980  0.37337014  0.97314890     0.12800
C1713       C  0.27135751  0.35097427  0.81472608     0.16700
C1714       C  0.27275252  0.35260902  0.83132305    -0.32400
C1715       C  0.26051165  0.36123833  0.83932745     0.21100
C1716       C  0.24732501  0.36769954  0.83121932     0.03300
C1717       C  0.24570285  0.36567061  0.81469754    -0.22100
C1718       C  0.25809820  0.35732697  0.80665449     0.12400
S1719       S  0.28536040  0.34176445  0.80269603    -0.05800
C1720       C  0.27321377  0.34652100  0.78660284    -0.09200
C1721       C  0.25905152  0.35474191  0.79052833    -0.25800
S1722       S  0.23467263  0.37916269  0.84276697    -0.03000
C1723       C  0.24737800  0.37539600  0.85867969    -0.16500
C1724       C  0.26046343  0.36539395  0.85516302    -0.14500
H1725       H  0.28319167  0.34784476  0.83763955     0.20900
H1726       H  0.23553051  0.37088370  0.80830596     0.16900
H1727       H  0.24988338  0.35853643  0.78204451     0.19500
H1728       H  0.27001703  0.36221975  0.86348391     0.12800
C1729       C  0.35890154  0.31775738  0.93962707     0.16700
C1730       C  0.36642249  0.31796800  0.92453383    -0.32400
C1731       C  0.37348822  0.30348925  0.91894615     0.21100
C1732       C  0.37323487  0.28943468  0.92802080     0.03300
C1733       C  0.36545946  0.28916393  0.94300667    -0.22100
C1734       C  0.35826783  0.30362173  0.94853614     0.12400
S1735       S  0.35032431  0.33420252  0.94889735    -0.05800
C1736       C  0.34540547  0.32190248  0.96495307    -0.09200
C1737       C  0.35045052  0.30586996  0.96291548    -0.25800
S1738       S  0.38282868  0.27325371  0.91916209    -0.03000
C1739       C  0.38693239  0.28544283  0.90287300    -0.16500
C1740       C  0.38117176  0.30123306  0.90451129    -0.14500
H1741       H  0.36684881  0.32897781  0.91748735     0.20900
H1742       H  0.36511529  0.27818344  0.95010113     0.16900
H1743       H  0.34875294  0.29632705  0.97164794     0.19500
H1744       H  0.38243385  0.31058563  0.89550597     0.12800
C1745       C  0.38414492  0.29141438  0.81671556     0.16700
C1746       C  0.38068666  0.29042840  0.80037060    -0.32400
C1747       C  0.36843103  0.30050665  0.79435950     0.21100
C1748       C  0.36052810  0.31164791  0.80404432     0.03300
C1749       C  0.36419554  0.31283244  0.82036427    -0.22100
C1750       C  0.37592452  0.30219953  0.82653798     0.12400
S1751       S  0.39705183  0.27875005  0.82651982    -0.05800
C1752       C  0.39094516  0.28761307  0.84419324    -0.09200
C1753       C  0.37981633  0.30011810  0.84236990    -0.25800
S1754       S  0.34499666  0.32166401  0.79486908    -0.03000
C1755       C  0.34862174  0.31014548  0.77805042    -0.16500
C1756       C  0.36169285  0.29962050  0.77940525    -0.14500
H1757       H  0.38660634  0.28150342  0.79286987     0.20900
H1758       H  0.35751506  0.32100354  0.82807752     0.16900
H1759       H  0.37431685  0.30679122  0.85211324     0.19500
H1760       H  0.36526646  0.29090777  0.77038470     0.12800
C1761       C  0.38125335  0.07745108  0.72002651     0.16700
C1762       C  0.38211591  0.06305554  0.71104084    -0.32400
C1763       C  0.36787273  0.05769737  0.70329437     0.21100
C1764       C  0.35335562  0.06608635  0.70467432     0.03300
C1765       C  0.35254615  0.08055841  0.71345168    -0.22100
C1766       C  0.36681092  0.08603835  0.72097122     0.12400
S1767       S  0.39715115  0.08632384  0.73012867    -0.05800
C1768       C  0.38426694  0.10198366  0.73531316    -0.09200
C1769       C  0.36848027  0.10004553  0.72963019    -0.25800
S1770       S  0.33721160  0.05697198  0.69534869    -0.03000
C1771       C  0.35023104  0.04192102  0.68881322    -0.16500
C1772       C  0.36619063  0.04396627  0.69412921    -0.14500
H1773       H  0.39339055  0.05634327  0.71009468     0.20900
H1774       H  0.34126279  0.08725790  0.71441115     0.16900
H1775       H  0.35873313  0.10868611  0.73144261     0.19500
H1776       H  0.37600947  0.03555526  0.69175161     0.12800
C1777       C  0.32126912  0.06689777  0.64700757     0.16700
C1778       C  0.32043540  0.08280385  0.64102308    -0.32400
C1779       C  0.30566592  0.08797359  0.63424425     0.21100
C1780       C  0.29238361  0.07768226  0.63306441     0.03300
C1781       C  0.29315591  0.06181206  0.63927606    -0.22100
C1782       C  0.30782855  0.05678276  0.64645460     0.12400
S1783       S  0.33805381  0.05831670  0.65570576    -0.05800
C1784       C  0.32664175  0.04111527  0.65969572    -0.09200
C1785       C  0.31079607  0.04209434  0.65372900    -0.25800
S1786       S  0.27564374  0.08642802  0.62423179    -0.03000
C1787       C  0.28652972  0.10429104  0.62254868    -0.16500
C1788       C  0.30232454  0.10319728  0.62842948    -0.14500
H1789       H  0.33080709  0.09088303  0.64178449     0.20900
H1790       H  0.28271210  0.05380853  0.63874100     0.16900
H1791       H  0.30173183  0.03261943  0.65487219     0.19500
H1792       H  0.31090365  0.11318310  0.62865896     0.12800
C1793       C  0.18223033  0.74752613  0.64426610     0.16700
C1794       C  0.19599586  0.75294254  0.65244469    -0.32400
C1795       C  0.20047240  0.74452126  0.66621869     0.21100
C1796       C  0.19177322  0.73113348  0.67154299     0.03300
C1797       C  0.17790222  0.72571752  0.66335049    -0.22100
C1798       C  0.17327759  0.73430647  0.64962330     0.12400
S1799       S  0.17483864  0.75644683  0.62755472    -0.05800
C1800       C  0.15923664  0.74245470  0.62779707    -0.09200
C1801       C  0.15994352  0.73131909  0.64018442    -0.25800
S1802       S  0.19977386  0.72218620  0.68814048    -0.03000
C1803       C  0.21488647  0.73675265  0.68790602    -0.16500
C1804       C  0.21363628  0.74788292  0.67559975    -0.14500
H1805       H  0.20290500  0.76331553  0.64826175     0.20900
H1806       H  0.17103638  0.71530527  0.66749048     0.16900
H1807       H  0.15110229  0.72180067  0.64230557     0.19500
H1808       H  0.22228600  0.75752628  0.67323625     0.12800
C1809       C  0.19005752  0.64353715  0.70959374     0.16700
C1810       C  0.20014725  0.65602737  0.70414036    -0.32400
C1811       C  0.21654559  0.65552351  0.70862240     0.21100
C1812       C  0.22284400  0.64285022  0.71756885     0.03300
C1813       C  0.21288997  0.62996319  0.72239821    -0.22100
C1814       C  0.19632985  0.63083820  0.71853091     0.12400
S1815       S  0.16936915  0.64354003  0.70798956    -0.05800
C1816       C  0.16915510  0.62652351  0.71989400    -0.09200
C1817       C  0.18438295  0.62091568  0.72430977    -0.25800
S1818       S  0.24224616  0.64597190  0.72420104    -0.03000
C1819       C  0.24160550  0.66476781  0.71526973    -0.16500
C1820       C  0.22738823  0.66792320  0.70693499    -0.14500
H1821       H  0.19518321  0.66634696  0.69780106     0.20900
H1822       H  0.21754928  0.62039413  0.72997341     0.16900
H1823       H  0.18655007  0.61073273  0.73219981     0.19500
H1824       H  0.22440648  0.67944210  0.70143551     0.12800
C1825       C  0.29352083  0.94538170  0.63272864     0.16700
C1826       C  0.30410093  0.95880680  0.63187395    -0.32400
C1827       C  0.31090250  0.96464170  0.64621069     0.21100
C1828       C  0.30730790  0.95747999  0.66075585     0.03300
C1829       C  0.29693116  0.94393843  0.66158878    -0.22100
C1830       C  0.29017574  0.93808968  0.64727243     0.12400
S1831       S  0.28375317  0.93651821  0.61680606    -0.05800
C1832       C  0.27527432  0.92264993  0.62985384    -0.09200
C1833       C  0.27983914  0.92507758  0.64568619    -0.25800
S1834       S  0.31587117  0.96706616  0.67685256    -0.03000
C1835       C  0.32468707  0.98086694  0.66391128    -0.16500
C1836       C  0.32092348  0.97792398  0.64793087    -0.14500
H1837       H  0.30677229  0.96457541  0.62055011     0.20900
H1838       H  0.29407354  0.93831776  0.67294377     0.16900
H1839       H  0.27584627  0.91760559  0.65559296     0.19500
H1840       H  0.32486850  0.98548924  0.63807995     0.12800
C1841       C  0.25507603  0.84087438  0.65129239     0.16700
C1842       C  0.25411509  0.82430483  0.65487985    -0.32400
C1843       C  0.26225566  0.81884762  0.66854328     0.21100
C1844       C  0.27077635  0.82943112  0.67832756     0.03300
C1845       C  0.27157094  0.84602273  0.67484525    -0.22100
C1846       C  0.26362934  0.85144494  0.66106234     0.12400
S1847       S  0.24693826  0.84971746  0.63473451    -0.05800
C1848       C  0.25533198  0.86782676  0.64093080    -0.09200
C1849       C  0.26375234  0.86695201  0.65522242    -0.25800
S1850       S  0.27990699  0.82042529  0.69428172    -0.03000
C1851       C  0.27222202  0.80216926  0.68767357    -0.16500
C1852       C  0.26301928  0.80316666  0.67385955    -0.14500
H1853       H  0.24757251  0.81598987  0.64720244     0.20900
H1854       H  0.27832260  0.85429461  0.68239201     0.16900
H1855       H  0.27010355  0.87699549  0.66076420     0.19500
H1856       H  0.25703334  0.79300662  0.66813486     0.12800
C1857       C  0.37615694  0.94948355  0.72913092     0.16700
C1858       C  0.36800354  0.96427463  0.72685050    -0.32400
C1859       C  0.36238034  0.96795604  0.71141371     0.21100
C1860       C  0.36492206  0.95752562  0.69871024     0.03300
C1861       C  0.37288150  0.94259229  0.70103277    -0.22100
C1862       C  0.37834965  0.93880602  0.71653863     0.12400
S1863       S  0.38333943  0.94250070  0.74707310    -0.05800
C1864       C  0.38928869  0.92491137  0.73761559    -0.09200
C1865       C  0.38569360  0.92461992  0.72139048    -0.25800
S1866       S  0.35782669  0.96477336  0.68078571    -0.03000
C1867       C  0.35096568  0.98195425  0.69055526    -0.16500
C1868       C  0.35429031  0.98177511  0.70688102    -0.14500
H1869       H  0.36604273  0.97253523  0.73671424     0.20900
H1870       H  0.37470232  0.93427028  0.69119714     0.16900
H1871       H  0.38774478  0.91426998  0.71369215     0.19500
H1872       H  0.35120932  0.99147642  0.71505333     0.12800
C1873       C  0.34916747  0.85473775  0.75417387     0.16700
C1874       C  0.33495178  0.84638528  0.75006585    -0.32400
C1875       C  0.33373385  0.83009709  0.75465255     0.21100
C1876       C  0.34595668  0.82251711  0.76326493     0.03300
C1877       C  0.36002677  0.83099611  0.76772312    -0.22100
C1878       C  0.36140709  0.84720706  0.76280259     0.12400
S1879       S  0.35358489  0.87405295  0.74833317    -0.05800
C1880       C  0.37222040  0.87197195  0.75747339    -0.09200
C1881       C  0.37465469  0.85709508  0.76483834    -0.25800
S1882       S  0.34288265  0.80226289  0.76622060    -0.03000
C1883       C  0.32509343  0.80400703  0.75546838    -0.16500
C1884       C  0.32162914  0.81958925  0.75033242    -0.14500
H1885       H  0.32556327  0.85212638  0.74299311     0.20900
H1886       H  0.36977365  0.82502255  0.77410984     0.16900
H1887       H  0.38571648  0.85351248  0.77088998     0.19500
H1888       H  0.31136943  0.82285431  0.74290195     0.12800
C1889       C  0.29059700  0.64867537  0.93838780     0.16700
C1890       C  0.29297662  0.65795735  0.95224977    -0.32400
C1891       C  0.30886325  0.66329918  0.95569651     0.21100
C1892       C  0.32192477  0.65941762  0.94596995     0.03300
C1893       C  0.31951687  0.65032387  0.93195356    -0.22100
C1894       C  0.30356406  0.64515641  0.92838991     0.12400
S1895       S  0.27216881  0.64142304  0.93181379    -0.05800
C1896       C  0.28192457  0.63389184  0.91516916    -0.09200
C1897       C  0.29864111  0.63678641  0.91505488    -0.25800
S1898       S  0.34037101  0.66622958  0.95300013    -0.03000
C1899       C  0.33031569  0.67475779  0.96908481    -0.16500
C1900       C  0.31354993  0.67219563  0.96874014    -0.14500
H1901       H  0.28286567  0.66092865  0.96001660     0.20900
H1902       H  0.32962394  0.64738968  0.92416805     0.16900
H1903       H  0.30671075  0.63342680  0.90537026     0.19500
H1904       H  0.30521257  0.67620007  0.97795487     0.12800
C1905       C  0.28213198  0.64949845  0.80451415     0.16700
C1906       C  0.27313683  0.63952924  0.81479065    -0.32400
C1907       C  0.27829691  0.63850151  0.83069001     0.21100
C1908       C  0.29219357  0.64642832  0.83595218     0.03300
C1909       C  0.30153715  0.65585147  0.82553969    -0.22100
C1910       C  0.29596318  0.65747813  0.80986346     0.12400
S1911       S  0.27613879  0.65488500  0.78575585    -0.05800
C1912       C  0.29201798  0.66851831  0.78549602    -0.09200
C1913       C  0.30184467  0.66819538  0.79889096    -0.25800
S1914       S  0.29554186  0.64505059  0.85594637    -0.03000
C1915       C  0.27786852  0.63390005  0.85730534    -0.16500
C1916       C  0.27007636  0.63114553  0.84290985    -0.14500
H1917       H  0.26198556  0.63377016  0.81087030     0.20900
H1918       H  0.31202878  0.66255433  0.82976129     0.16900
H1919       H  0.31195137  0.67635665  0.80105428     0.19500
H1920       H  0.25866226  0.62470958  0.84155119     0.12800
C1921       C  0.39193012  0.73082229  0.93395583     0.16700
C1922       C  0.39169735  0.72214390  0.94844880    -0.32400
C1923       C  0.37687924  0.71495655  0.95328385     0.21100
C1924       C  0.36286082  0.71658835  0.94430077     0.03300
C1925       C  0.36310511  0.72516931  0.92982804    -0.22100
C1926       C  0.37792976  0.73209845  0.92487137     0.12400
S1927       S  0.40878890  0.73970490  0.92531042    -0.05800
C1928       C  0.39687950  0.74476702  0.90910302    -0.09200
C1929       C  0.38069191  0.74004339  0.91074664    -0.25800
S1930       S  0.34598879  0.70762356  0.95258375    -0.03000
C1931       C  0.35791067  0.70113378  0.96829793    -0.16500
C1932       C  0.37415950  0.70601159  0.96690440    -0.14500
H1933       H  0.40261881  0.72087027  0.95554706     0.20900
H1934       H  0.35222269  0.72627731  0.92264213     0.16900
H1935       H  0.37148846  0.74169867  0.90164954     0.19500
H1936       H  0.38350480  0.70344683  0.97564048     0.12800
C1937       C  0.37489062  0.73730827  0.79903957     0.16700
C1938       C  0.38655399  0.74510009  0.80845403    -0.32400
C1939       C  0.38706796  0.74107945  0.82468826     0.21100
C1940       C  0.37675331  0.72953085  0.83125617     0.03300
C1941       C  0.36548370  0.72129820  0.82170865    -0.22100
C1942       C  0.36470324  0.72559235  0.80552309     0.12400
S1943       S  0.37026768  0.74272195  0.77992403    -0.05800
C1944       C  0.35423481  0.72927318  0.78075737    -0.09200
C1945       C  0.35309079  0.72063218  0.79493429    -0.25800
S1946       S  0.37834382  0.72751111  0.85150011    -0.03000
C1947       C  0.39303990  0.74241708  0.85104009    -0.16500
C1948       C  0.39652612  0.74839776  0.83594978    -0.14500
H1949       H  0.39422816  0.75457514  0.80355697     0.20900
H1950       H  0.35708166  0.71259737  0.82684033     0.16900
H1951       H  0.34319984  0.71249064  0.79798919     0.19500
H1952       H  0.40516903  0.75799544  0.83339457     0.12800
C1953       C  0.66872104  0.20266464  0.72900585     0.16700
C1954       C  0.66396260  0.18695366  0.72478144    -0.32400
C1955       C  0.65328386  0.17884059  0.73506784     0.21100
C1956       C  0.64713719  0.18624754  0.74866920     0.03300
C1957       C  0.65176390  0.20205826  0.75281661    -0.22100
C1958       C  0.66290945  0.20997458  0.74280119     0.12400
S1959       S  0.68246833  0.21395673  0.71864448    -0.05800
C1960       C  0.68075614  0.22855373  0.73324588    -0.09200
C1961       C  0.66981040  0.22490179  0.74533384    -0.25800
S1962       S  0.63463793  0.17419797  0.75977609    -0.03000
C1963       C  0.63821401  0.15886189  0.74623568    -0.16500
C1964       C  0.64821468  0.16309774  0.73360173    -0.14500
H1965       H  0.66879983  0.18111345  0.71421321     0.20900
H1966       H  0.64728346  0.20772618  0.76362377     0.16900
H1967       H  0.66727038  0.23258955  0.75551826     0.19500
H1968       H  0.65174980  0.15504609  0.72399029     0.12800
C1969       C  0.73161373  0.18575920  0.64149572     0.16700
C1970       C  0.72260504  0.19475078  0.65265689    -0.32400
C1971       C  0.72626893  0.21133113  0.65419678     0.21100
C1972       C  0.73827443  0.21859035  0.64496147     0.03300
C1973       C  0.74711147  0.20967790  0.63373551    -0.22100
C1974       C  0.74354322  0.19315462  0.63229070     0.12400
S1975       S  0.72978156  0.16533529  0.63832010    -0.05800
C1976       C  0.74532124  0.16687584  0.62453257    -0.09200
C1977       C  0.75135828  0.18244518  0.62251433    -0.25800
S1978       S  0.74193994  0.23838534  0.64939316    -0.03000
C1979       C  0.72719183  0.23699983  0.66395730    -0.16500
C1980       C  0.71971807  0.22192849  0.66508169    -0.14500
H1981       H  0.71345903  0.18900722  0.66007918     0.20900
H1982       H  0.75668158  0.21529017  0.62673484     0.16900
H1983       H  0.76123897  0.18572805  0.61455931     0.19500
H1984       H  0.71080848  0.21860869  0.67405567     0.12800
C1985       C  0.96333597  0.30669821  0.65807766     0.16700
C1986       C  0.95014591  0.29588734  0.65778271    -0.32400
C1987       C  0.94522620  0.28967615  0.64292220     0.21100
C1988       C  0.95306918  0.29387203  0.62886927     0.03300
C1989       C  0.96628678  0.30478957  0.62915194    -0.22100
C1990       C  0.97114604  0.31112203  0.64407447     0.12400
S1991       S  0.97158487  0.31498842  0.67501804    -0.05800
C1992       C  0.98576378  0.32477468  0.66321972    -0.09200
C1993       C  0.98389201  0.32155952  0.64693946    -0.25800
S1994       S  0.94473680  0.28504142  0.61208597    -0.03000
C1995       C  0.93036868  0.27587327  0.62419537    -0.16500
C1996       C  0.93236215  0.27943783  0.64032114    -0.14500
H1997       H  0.94396683  0.29243186  0.66869888     0.20900
H1998       H  0.97249477  0.30821728  0.61824523     0.16900
H1999       H  0.99188098  0.32616776  0.63768833     0.19500
H2000       H  0.92442197  0.27509208  0.64973983     0.12800
C2001       C  0.85358983  0.27121964  0.65209083     0.16700
C2002       C  0.84367505  0.27839051  0.66368976    -0.32400
C2003       C  0.82711616  0.27440067  0.66359357     0.21100
C2004       C  0.82068095  0.26365449  0.65253239     0.03300
C2005       C  0.83058841  0.25660777  0.64079502    -0.22100
C2006       C  0.84717236  0.26066780  0.64083836     0.12400
S2007       S  0.87391851  0.27469641  0.65015539    -0.05800
C2008       C  0.87380408  0.26201294  0.63380572    -0.09200
C2009       C  0.85874445  0.25531880  0.63027826    -0.25800
S2010       S  0.80035630  0.25996985  0.65487020    -0.03000
C2011       C  0.80057389  0.27316536  0.67082094    -0.16500
C2012       C  0.81561003  0.28003306  0.67400187    -0.14500
H2013       H  0.84865205  0.28671748  0.67241246     0.20900
H2014       H  0.82560665  0.24830894  0.63205277     0.16900
H2015       H  0.85632411  0.24727238  0.62034314     0.19500
H2016       H  0.81805987  0.28844803  0.68363539     0.12800
C2017       C  0.95260517  0.37572137  0.72939236     0.16700
C2018       C  0.96718633  0.36699082  0.72747368    -0.32400
C2019       C  0.97108206  0.36121685  0.71208806     0.21100
C2020       C  0.96106550  0.36415319  0.69914126     0.03300
C2021       C  0.94640219  0.37266950  0.70109783    -0.22100
C2022       C  0.94240801  0.37827028  0.71648416     0.12400
S2023       S  0.94537423  0.38356691  0.74707069    -0.05800
C2024       C  0.92826453  0.39002308  0.73699174    -0.09200
C2025       C  0.92845531  0.38631074  0.72079760    -0.25800
S2026       S  0.96855757  0.35709324  0.68130211    -0.03000
C2027       C  0.98537741  0.34981075  0.69133532    -0.16500
C2028       C  0.98484468  0.35284250  0.70773935    -0.14500
H2029       H  0.97516420  0.36480882  0.73752014     0.20900
H2030       H  0.93845432  0.37489155  0.69103865     0.16900
H2031       H  0.91861674  0.38901703  0.71263767     0.19500
H2032       H  0.99439854  0.34960551  0.71603353     0.12800
C2033       C  0.82905545  0.35669596  0.71880869     0.16700
C2034       C  0.84511592  0.36207398  0.71672347    -0.32400
C2035       C  0.85132060  0.37304523  0.72798438     0.21100
C2036       C  0.84176900  0.37887504  0.74038356     0.03300
C2037       C  0.82568119  0.37367422  0.74233459    -0.22100
C2038       C  0.81968952  0.36225511  0.73146188     0.12400
S2039       S  0.81989168  0.34197172  0.70764307    -0.05800
C2040       C  0.80357244  0.34289908  0.72056666    -0.09200
C2041       C  0.80505137  0.35441535  0.73250704    -0.25800
S2042       S  0.85165904  0.39150135  0.75321824    -0.03000
C2043       C  0.86903143  0.38854141  0.74208319    -0.16500
C2044       C  0.86703350  0.37856014  0.72889892    -0.14500
H2045       H  0.85266695  0.35734927  0.70719532     0.20900
H2046       H  0.81839575  0.37778491  0.75232799     0.16900
H2047       H  0.79627167  0.35631214  0.74198377     0.19500
H2048       H  0.87664021  0.37519343  0.72067916     0.12800
C2049       C  0.64261957  0.29263793  0.93222740     0.16700
C2050       C  0.65169570  0.29202244  0.94646504    -0.32400
C2051       C  0.65779987  0.30672658  0.95266167     0.21100
C2052       C  0.65493668  0.32138747  0.94508691     0.03300
C2053       C  0.64588008  0.32200224  0.93090647    -0.22100
C2054       C  0.63988535  0.30733027  0.92467100     0.12400
S2055       S  0.63479881  0.27617447  0.92217370    -0.05800
C2056       C  0.62800980  0.28923941  0.90752040    -0.09200
C2057       C  0.63156858  0.30544683  0.91059832    -0.25800
S2058       S  0.66304618  0.33788811  0.95466225    -0.03000
C2059       C  0.67049610  0.32497683  0.96912131    -0.16500
C2060       C  0.66670870  0.30871276  0.96642954    -0.14500
H2061       H  0.65401865  0.28058044  0.95238188     0.20900
H2062       H  0.64370249  0.33343056  0.92490525     0.16900
H2063       H  0.62883558  0.31533493  0.90251927     0.19500
H2064       H  0.67001039  0.29887934  0.97435749     0.12800
C2065       C  0.65288006  0.30533361  0.83176015     0.16700
C2066       C  0.66664325  0.31100364  0.82351303    -0.32400
C2067       C  0.66821200  0.30671646  0.80735406     0.21100
C2068       C  0.65635394  0.29764666  0.79965909     0.03300
C2069       C  0.64234986  0.29251791  0.80773959    -0.22100
C2070       C  0.64106213  0.29629558  0.82398279     0.12400
S2071       S  0.64999966  0.30683623  0.85191638    -0.05800
C2072       C  0.63300451  0.29470554  0.84984889    -0.09200
C2073       C  0.62953275  0.29036956  0.83424663    -0.25800
S2074       S  0.66139634  0.29176934  0.78078282    -0.03000
C2075       C  0.67979041  0.30145660  0.78324843    -0.16500
C2076       C  0.68161944  0.30919306  0.79786065    -0.14500
H2077       H  0.67619465  0.31754845  0.82966268     0.20900
H2078       H  0.63337788  0.28495017  0.80189001     0.16900
H2079       H  0.61975022  0.28231895  0.83071755     0.19500
H2080       H  0.69265258  0.31517742  0.80178500     0.12800
C2081       C  0.73499712  0.38094344  0.94014563     0.16700
C2082       C  0.72374758  0.38167778  0.95281124    -0.32400
C2083       C  0.71552114  0.36726453  0.95707454     0.21100
C2084       C  0.71851442  0.35274406  0.94930690     0.03300
C2085       C  0.72985012  0.35197306  0.93684922    -0.22100
C2086       C  0.73788334  0.36635040  0.93248295     0.12400
S2087       S  0.74529844  0.39718200  0.93192183    -0.05800
C2088       C  0.75320400  0.38410183  0.91783141    -0.09200
C2089       C  0.74840880  0.36804849  0.91999771    -0.25800
S2090       S  0.70776408  0.33652452  0.95659016    -0.03000
C2091       C  0.69905130  0.34933275  0.97042657    -0.16500
C2092       C  0.70427102  0.36540629  0.96906732    -0.14500
H2093       H  0.72129932  0.39300597  0.95888914     0.20900
H2094       H  0.73217089  0.34067326  0.93066176     0.16900
H2095       H  0.75170813  0.35812579  0.91215757     0.19500
H2096       H  0.70055273  0.37512665  0.97695912     0.12800
C2097       C  0.77233536  0.34261306  0.81587137     0.16700
C2098       C  0.78021121  0.35303179  0.82647748    -0.32400
C2099       C  0.77182895  0.35732304  0.84036478     0.21100
C2100       C  0.75660064  0.35097027  0.84394961     0.03300
C2101       C  0.74882734  0.34031993  0.83345888    -0.22100
C2102       C  0.75692532  0.33658050  0.81922937     0.12400
S2103       S  0.77963859  0.33762324  0.79751830    -0.05800
C2104       C  0.76146566  0.32785995  0.79410822    -0.09200
C2105       C  0.75064238  0.32798488  0.80677426    -0.25800
S2106       S  0.74825293  0.35814061  0.86116796    -0.03000
C2107       C  0.76524329  0.37018274  0.86316613    -0.16500
C2108       C  0.77681983  0.36845059  0.85133535    -0.14500
H2109       H  0.79200421  0.35818809  0.82366494     0.20900
H2110       H  0.73671441  0.33575682  0.83592917     0.16900
H2111       H  0.73854318  0.32275243  0.80659258     0.19500
H2112       H  0.78816831  0.37512688  0.85070786     0.12800
C2113       C  0.08437862  0.62818334  0.70752957     0.16700
C2114       C  0.06924488  0.62743450  0.69975852    -0.32400
C2115       C  0.06424803  0.64110203  0.69093985     0.21100
C2116       C  0.07371786  0.65496963  0.69010952     0.03300
C2117       C  0.08898580  0.65558659  0.69753370    -0.22100
C2118       C  0.09406901  0.64188374  0.70615909     0.12400
S2119       S  0.09287806  0.61292145  0.71873309    -0.05800
C2120       C  0.10986760  0.62497334  0.72112409    -0.09200
C2121       C  0.10865820  0.64007195  0.71382311    -0.25800
S2122       S  0.06479943  0.67073289  0.68013214    -0.03000
C2123       C  0.04814421  0.65845491  0.67647702    -0.16500
C2124       C  0.04981778  0.64289075  0.68289767    -0.14500
H2125       H  0.06166134  0.61671260  0.70060607     0.20900
H2126       H  0.09652892  0.66634247  0.69674286     0.16900
H2127       H  0.11821591  0.64913904  0.71375905     0.19500
H2128       H  0.04069470  0.63343011  0.68220647     0.12800
C2129       C  0.06874372  0.69149165  0.63349509     0.16700
C2130       C  0.08307633  0.69319052  0.62439812    -0.32400
C2131       C  0.08806383  0.70900433  0.62018367     0.21100
C2132       C  0.07897174  0.72246467  0.62447641     0.03300
C2133       C  0.06476476  0.72076468  0.63364648    -0.22100
C2134       C  0.06001890  0.70504269  0.63818583     0.12400
S2135       S  0.06048321  0.67347034  0.63994750    -0.05800
C2136       C  0.04545618  0.68440060  0.64961727    -0.09200
C2137       C  0.04680532  0.70107752  0.64743141    -0.25800
S2138       S  0.08736420  0.74062512  0.61884628    -0.03000
C2139       C  0.10357416  0.73011633  0.61095055    -0.16500
C2140       C  0.10227846  0.71334857  0.61254951    -0.14500
H2141       H  0.09018382  0.68268860  0.62101243     0.20900
H2142       H  0.05787737  0.73129271  0.63738143     0.16900
H2143       H  0.03839624  0.70989631  0.65229932     0.19500
H2144       H  0.11170036  0.70485698  0.60912554     0.12800
C2145       C  0.72994233  0.08598054  0.62145326     0.16700
C2146       C  0.71777357  0.07394885  0.62231858    -0.32400
C2147       C  0.71505069  0.06631582  0.63715399     0.21100
C2148       C  0.72436411  0.07014527  0.65038634     0.03300
C2149       C  0.73642478  0.08222574  0.64956346    -0.22100
C2150       C  0.73886637  0.09012560  0.63486334     0.12400
S2151       S  0.73432937  0.09760969  0.60496358    -0.05800
C2152       C  0.74815798  0.10832809  0.61631194    -0.09200
C2153       C  0.74919856  0.10294888  0.63200854    -0.25800
S2154       S  0.72003468  0.05867269  0.66690116    -0.03000
C2155       C  0.70461540  0.04930298  0.65634131    -0.16500
C2156       C  0.70374510  0.05439431  0.64049028    -0.14500
H2157       H  0.71055168  0.07087178  0.61195385     0.20900
H2158       H  0.74350676  0.08543901  0.65998427     0.16900
H2159       H  0.75643305  0.10881080  0.64114091     0.19500
H2160       H  0.69567730  0.04912730  0.63169185     0.12800
C2161       C  0.67112136  0.07056584  0.69944467     0.16700
C2162       C  0.67034468  0.08466708  0.70884104    -0.32400
C2163       C  0.65561961  0.08810050  0.71674972     0.21100
C2164       C  0.64230063  0.07785212  0.71559933     0.03300
C2165       C  0.64305807  0.06381022  0.70605605    -0.22100
C2166       C  0.65773588  0.06051416  0.69793875     0.12400
S2167       S  0.68797098  0.06392812  0.68932452    -0.05800
C2168       C  0.67699936  0.04738507  0.68261689    -0.09200
C2169       C  0.66093097  0.04743732  0.68821153    -0.25800
S2170       S  0.62560848  0.08424613  0.72630283    -0.03000
C2171       C  0.63655079  0.10115535  0.73204125    -0.16500
C2172       C  0.65237586  0.10144197  0.72604982    -0.14500
H2173       H  0.68077301  0.09263468  0.70993847     0.20900
H2174       H  0.63265677  0.05580732  0.70498475     0.16900
H2175       H  0.65201584  0.03813238  0.68559201     0.19500
H2176       H  0.66106575  0.11107585  0.72824752     0.12800
C2177       C  0.67394731  0.72372120  0.05506920     0.16700
C2178       C  0.67418555  0.73228507  0.06948825    -0.32400
C2179       C  0.65992653  0.74032671  0.07415249     0.21100
C2180       C  0.64594695  0.73995478  0.06495191     0.03300
C2181       C  0.64561191  0.73108293  0.05059438    -0.22100
C2182       C  0.65994868  0.72297764  0.04591294     0.12400
S2183       S  0.69038757  0.71416365  0.04688060    -0.05800
C2184       C  0.67826873  0.70851915  0.03101195    -0.09200
C2185       C  0.66233039  0.71419982  0.03214878    -0.25800
S2186       S  0.63018996  0.75124518  0.07267763    -0.03000
C2187       C  0.64261838  0.75628788  0.08853090    -0.16500
C2188       C  0.65805953  0.74950362  0.08761007    -0.14500
H2189       H  0.68512839  0.73290203  0.07664780     0.20900
H2190       H  0.63476901  0.73071901  0.04328124     0.16900
H2191       H  0.65305862  0.71232335  0.02316691     0.19500
H2192       H  0.66761144  0.75133363  0.09632282     0.12800
C2193       C  0.70636380  0.66447440  0.05609520     0.16700
C2194       C  0.70613770  0.65579833  0.07052983    -0.32400
C2195       C  0.72086841  0.64905931  0.07590530     0.21100
C2196       C  0.73517303  0.65069713  0.06726249     0.03300
C2197       C  0.73545312  0.65964522  0.05300882    -0.22100
C2198       C  0.72077373  0.66653767  0.04773732     0.12400
S2199       S  0.68971186  0.67294314  0.04700908    -0.05800
C2200       C  0.70240118  0.67982052  0.03197017    -0.09200
C2201       C  0.71861736  0.67544281  0.03409854    -0.25800
S2202       S  0.75172346  0.64152957  0.07585083    -0.03000
C2203       C  0.73932647  0.63574676  0.09146236    -0.16500
C2204       C  0.72322165  0.64063221  0.08982951    -0.14500
H2205       H  0.69496640  0.65431079  0.07725401     0.20900
H2206       H  0.74662935  0.66116618  0.04629832     0.16900
H2207       H  0.72835324  0.67834721  0.02583842     0.19500
H2208       H  0.71379432  0.63850033  0.09864365     0.12800
C2209       C  0.64450353  0.95542754  0.71084377     0.16700
C2210       C  0.64429376  0.96718475  0.69859160    -0.32400
C2211       C  0.65938490  0.97268742  0.69249078     0.21100
C2212       C  0.67398007  0.96674837  0.69828991     0.03300
C2213       C  0.67417589  0.95511184  0.71049164    -0.22100
C2214       C  0.65918639  0.94968322  0.71658635     0.12400
S2215       S  0.62772187  0.94638692  0.71958658    -0.05800
C2216       C  0.64076002  0.93464188  0.73089572    -0.09200
C2217       C  0.65711063  0.93804759  0.72806677    -0.25800
S2218       S  0.69095979  0.97561667  0.69015665    -0.03000
C2219       C  0.67841896  0.98771453  0.67879417    -0.16500
C2220       C  0.66187143  0.98466577  0.68125994    -0.14500
H2221       H  0.63290665  0.97186183  0.69404109     0.20900
H2222       H  0.68556896  0.95052827  0.71512978     0.16900
H2223       H  0.66713031  0.93167643  0.73363349     0.19500
H2224       H  0.65217242  0.99166788  0.67589782     0.12800
C2225       C  0.67788905  0.86299362  0.73997974     0.16700
C2226       C  0.69149484  0.85474981  0.73406927    -0.32400
C2227       C  0.69748777  0.84178018  0.74309574     0.21100
C2228       C  0.69021739  0.83715193  0.75734977     0.03300
C2229       C  0.67629090  0.84511830  0.76303432    -0.22100
C2230       C  0.67034519  0.85818328  0.75404468     0.12400
S2231       S  0.66976846  0.87987144  0.73146986    -0.05800
C2232       C  0.65595629  0.88046854  0.74695341    -0.09200
C2233       C  0.65753184  0.86806611  0.75800980    -0.25800
S2234       S  0.70030905  0.82212752  0.76726544    -0.03000
C2235       C  0.71435827  0.82199972  0.75195506    -0.16500
C2236       C  0.71119683  0.83296446  0.73981457    -0.14500
H2237       H  0.69747082  0.85861639  0.72317358     0.20900
H2238       H  0.67067238  0.84163974  0.77423074     0.16900
H2239       H  0.65012590  0.86672163  0.76863760     0.19500
H2240       H  0.71896992  0.83494697  0.72953541     0.12800
C2241       C  0.74152265  0.95668191  0.62354887     0.16700
C2242       C  0.73940360  0.97214574  0.63028105    -0.32400
C2243       C  0.72440999  0.97564069  0.63765778     0.21100
C2244       C  0.71183232  0.96448038  0.63792981     0.03300
C2245       C  0.71394655  0.94894671  0.63121248    -0.22100
C2246       C  0.72915322  0.94526623  0.62423988     0.12400
S2247       S  0.75939015  0.94955125  0.61557998    -0.05800
C2248       C  0.75036914  0.93078343  0.61354416    -0.09200
C2249       C  0.73420059  0.93039334  0.61860238    -0.25800
S2250       S  0.69458695  0.97138191  0.64741386    -0.03000
C2251       C  0.70454741  0.98945507  0.65149815    -0.16500
C2252       C  0.72042760  0.98972552  0.64549203    -0.14500
H2253       H  0.74921826  0.98092685  0.63021768     0.20900
H2254       H  0.70433361  0.93996712  0.63180396     0.16900
H2255       H  0.72688548  0.91946689  0.61918649     0.19500
H2256       H  0.72886711  0.99971671  0.64686672     0.12800
C2257       C  0.76516444  0.86351677  0.66033854     0.16700
C2258       C  0.75957639  0.85404673  0.67309663    -0.32400
C2259       C  0.77025843  0.84248198  0.67942045     0.21100
C2260       C  0.78584375  0.84043041  0.67337114     0.03300
C2261       C  0.79142941  0.84986406  0.66057750    -0.22100
C2262       C  0.78069550  0.86135432  0.65419647     0.12400
S2263       S  0.75400040  0.87809406  0.65087815    -0.05800
C2264       C  0.77033504  0.88107034  0.63835397    -0.09200
C2265       C  0.78370020  0.87135100  0.64151729    -0.25800
S2266       S  0.79685944  0.82566555  0.68266217    -0.03000
C2267       C  0.78026145  0.82221974  0.69481949    -0.16500
C2268       C  0.76699127  0.83207389  0.69174143    -0.14500
H2269       H  0.74740781  0.85556935  0.67784058     0.20900
H2270       H  0.80354646  0.84823736  0.65573208     0.16900
H2271       H  0.79497318  0.87150712  0.63478989     0.19500
H2272       H  0.75551631  0.83157255  0.69810626     0.12800
C2273       C  0.95107554  0.71505984  0.62219519     0.16700
C2274       C  0.96479616  0.70487847  0.62209093    -0.32400
C2275       C  0.97004167  0.69833572  0.63676370     0.21100
C2276       C  0.96225241  0.70198418  0.65097320     0.03300
C2277       C  0.94838159  0.71191792  0.65105184    -0.22100
C2278       C  0.94299099  0.71824383  0.63636588     0.12400
S2279       S  0.94249886  0.72415726  0.60570832    -0.05800
C2280       C  0.92759294  0.73197421  0.61801586    -0.09200
C2281       C  0.92958670  0.72781490  0.63402730    -0.25800
S2282       S  0.97146484  0.69395523  0.66759164    -0.03000
C2283       C  0.98571297  0.68495848  0.65525386    -0.16500
C2284       C  0.98324607  0.68844622  0.63911923    -0.14500
H2285       H  0.97113450  0.70218559  0.61106511     0.20900
H2286       H  0.94210903  0.71469380  0.66209594     0.16900
H2287       H  0.92138719  0.73138329  0.64353465     0.19500
H2288       H  0.99117770  0.68443903  0.62956789     0.12800
C2289       C  0.84811353  0.75131241  0.64492473     0.16700
C2290       C  0.83471796  0.75706594  0.65352829    -0.32400
C2291       C  0.83117835  0.74950857  0.66810422     0.21100
C2292       C  0.84016299  0.73641577  0.67360245     0.03300
C2293       C  0.85333342  0.73044243  0.66483674    -0.22100
C2294       C  0.85725140  0.73840042  0.65058135     0.12400
S2295       S  0.85558933  0.76005104  0.62796813    -0.05800
C2296       C  0.87145118  0.74647793  0.62885863    -0.09200
C2297       C  0.87063892  0.73553803  0.64137335    -0.25800
S2298       S  0.83502831  0.73000054  0.69227202    -0.03000
C2299       C  0.82103364  0.74550540  0.69290459    -0.16500
C2300       C  0.82005464  0.75468933  0.67909444    -0.14500
H2301       H  0.82791852  0.76752968  0.64948181     0.20900
H2302       H  0.86076049  0.72062954  0.66937163     0.16900
H2303       H  0.87970724  0.72638663  0.64396158     0.19500
H2304       H  0.81245318  0.76530696  0.67761292     0.12800
C2305       C  0.96083727  0.63236799  0.72481026     0.16700
C2306       C  0.97579381  0.63925830  0.72040293    -0.32400
C2307       C  0.97705823  0.64634075  0.70518564     0.21100
C2308       C  0.96427756  0.64609906  0.69448760     0.03300
C2309       C  0.94912466  0.63949122  0.69901568    -0.22100
C2310       C  0.94768951  0.63283446  0.71449771     0.12400
S2311       S  0.95651962  0.62450704  0.74328462    -0.05800
C2312       C  0.93657052  0.62236316  0.73742737    -0.09200
C2313       C  0.93371401  0.62722387  0.72173772    -0.25800
S2314       S  0.96902670  0.65438614  0.67617727    -0.03000
C2315       C  0.98830721  0.65890913  0.68325968    -0.16500
C2316       C  0.99049851  0.65396707  0.69906726    -0.14500
H2317       H  0.98594238  0.63941097  0.72863105     0.20900
H2318       H  0.93885423  0.63974877  0.69094399     0.16900
H2319       H  0.92176181  0.62780653  0.71634383     0.19500
H2320       H  0.00157988  0.65562138  0.70584860     0.12800
C2321       C  0.87620391  0.67203898  0.77525600     0.16700
C2322       C  0.86507251  0.68234860  0.78274713    -0.32400
C2323       C  0.86104280  0.69677079  0.77490092     0.21100
C2324       C  0.86791985  0.70085924  0.76030030     0.03300
C2325       C  0.87946396  0.69075908  0.75302239    -0.22100
C2326       C  0.88333323  0.67620259  0.76079159     0.12400
S2327       S  0.88146125  0.65339668  0.78222886    -0.05800
C2328       C  0.89347609  0.65113759  0.76552289    -0.09200
C2329       C  0.89344084  0.66427518  0.75519444    -0.25800
S2330       S  0.85981949  0.71780974  0.75177600    -0.03000
C2331       C  0.84701587  0.71932180  0.76804512    -0.16500
C2332       C  0.84927849  0.70749892  0.77955673    -0.14500
H2333       H  0.85929202  0.67895558  0.79389437     0.20900
H2334       H  0.88465226  0.69376569  0.74149632     0.16900
H2335       H  0.90008697  0.66488165  0.74402980     0.19500
H2336       H  0.84178430  0.70604184  0.79011682     0.12800
C2337       C  0.75101725  0.65372146  0.94893518     0.16700
C2338       C  0.74743823  0.66331303  0.96229770    -0.32400
C2339       C  0.73184898  0.67019465  0.96334823     0.21100
C2340       C  0.72011769  0.66749391  0.95181862     0.03300
C2341       C  0.72379364  0.65807386  0.93824531    -0.22100
C2342       C  0.73954273  0.65134151  0.93706992     0.12400
S2343       S  0.76960077  0.64522011  0.94502709    -0.05800
C2344       C  0.76207650  0.63851718  0.92702635    -0.09200
C2345       C  0.74588359  0.64273372  0.92441748    -0.25800
S2346       S  0.70149813  0.67596411  0.95629799    -0.03000
C2347       C  0.70972053  0.68328745  0.97386466    -0.16500
C2348       C  0.72612519  0.67946952  0.97567054    -0.14500
H2349       H  0.75646882  0.66541367  0.97146765     0.20900
H2350       H  0.71480489  0.65608162  0.92901974     0.16900
H2351       H  0.73946255  0.64061107  0.91333472     0.19500
H2352       H  0.73330757  0.68251938  0.98608162     0.12800
C2353       C  0.79394544  0.67486383  0.85657073     0.16700
C2354       C  0.79775785  0.68252428  0.84210423    -0.32400
C2355       C  0.79111753  0.69794745  0.83940364     0.21100
C2356       C  0.78124848  0.70546401  0.85062885     0.03300
C2357       C  0.77771240  0.69795390  0.86518539    -0.22100
C2358       C  0.78418578  0.68249362  0.86780158     0.12400
S2359       S  0.79983821  0.65571315  0.86178372    -0.05800
C2360       C  0.78887307  0.65803658  0.87918323    -0.09200
C2361       C  0.78132602  0.67295577  0.88081616    -0.25800
S2362       S  0.77368097  0.72376881  0.84481619    -0.03000
C2363       C  0.78397334  0.72132547  0.82708082    -0.16500
C2364       C  0.79287152  0.70710476  0.82588598    -0.14500
H2365       H  0.80523653  0.67658373  0.83320560     0.20900
H2366       H  0.76990874  0.70372798  0.87392303     0.16900
H2367       H  0.77375500  0.67649731  0.89082096     0.19500
H2368       H  0.79996222  0.70352806  0.81556127     0.12800
C2369       C  0.65349508  0.74535670  0.93871594     0.16700
C2370       C  0.65183278  0.73335501  0.95060772    -0.32400
C2371       C  0.66611990  0.72602929  0.95657950     0.21100
C2372       C  0.68137256  0.73035783  0.95094273     0.03300
C2373       C  0.68302588  0.74230612  0.93910245    -0.22100
C2374       C  0.66879422  0.74966954  0.93323702     0.12400
S2375       S  0.63783770  0.75594637  0.92975946    -0.05800
C2376       C  0.65213464  0.76634455  0.91856362    -0.09200
C2377       C  0.66808225  0.76159359  0.92187552    -0.25800
S2378       S  0.69721380  0.72069463  0.96030609    -0.03000
C2379       C  0.68321873  0.71068447  0.97213729    -0.16500
C2380       C  0.66712108  0.71475385  0.96866577    -0.14500
H2381       H  0.63995208  0.72999758  0.95514488     0.20900
H2382       H  0.69493075  0.74589035  0.93478593     0.16900
H2383       H  0.67880821  0.76654647  0.91611725     0.19500
H2384       H  0.65668525  0.71023290  0.97521988     0.12800
C2385       C  0.69409684  0.80923098  0.85772274     0.16700
C2386       C  0.70274564  0.81391858  0.84407614    -0.32400
C2387       C  0.71807990  0.80692757  0.84161058     0.21100
C2388       C  0.72483612  0.79624286  0.85253511     0.03300
C2389       C  0.71657032  0.79227133  0.86663551    -0.22100
C2390       C  0.70094120  0.79873257  0.86876147     0.12400
S2391       S  0.67408066  0.81362678  0.86113437    -0.05800
C2392       C  0.67486340  0.80093218  0.87743663    -0.09200
C2393       C  0.69005453  0.79420082  0.88027499    -0.25800
S2394       S  0.74204929  0.78674861  0.84595680    -0.03000
C2395       C  0.73989633  0.79706027  0.82819051    -0.16500
C2396       C  0.72690626  0.80775177  0.82780198    -0.14500
H2397       H  0.69720455  0.82158749  0.83510871     0.20900
H2398       H  0.72149177  0.78344828  0.87489864     0.16900
H2399       H  0.69268073  0.78543131  0.88955210     0.19500
H2400       H  0.72311521  0.81448736  0.81734465     0.12800
C2401       C  0.57174446  0.87671222  0.80564028     0.16700
C2402       C  0.58542942  0.88677084  0.80322613    -0.32400
C2403       C  0.58953664  0.89107194  0.78739956     0.21100
C2404       C  0.58027151  0.88579839  0.77461039     0.03300
C2405       C  0.56674631  0.87564397  0.77701136    -0.22100
C2406       C  0.56283878  0.87112925  0.79274768     0.12400
S2407       S  0.56424537  0.87044508  0.82383317    -0.05800
C2408       C  0.54920008  0.85977136  0.81391240    -0.09200
C2409       C  0.55013505  0.86135525  0.79737097    -0.25800
S2410       S  0.58768520  0.89153986  0.75633051    -0.03000
C2411       C  0.60366303  0.90103417  0.76582581    -0.16500
C2412       C  0.60303347  0.89970804  0.78241121    -0.14500
H2413       H  0.59264711  0.89093283  0.81322217     0.20900
H2414       H  0.55969413  0.87123850  0.76699725     0.16900
H2415       H  0.54153275  0.85601410  0.78911038     0.19500
H2416       H  0.61257268  0.90385056  0.79033115     0.12800
C2417       C  0.57711597  0.82246560  0.84779917     0.16700
C2418       C  0.59295193  0.81610290  0.84856548    -0.32400
C2419       C  0.59854665  0.81024981  0.86336191     0.21100
C2420       C  0.58878738  0.81044547  0.87684807     0.03300
C2421       C  0.57293148  0.81699869  0.87611264    -0.22100
C2422       C  0.56740841  0.82310659  0.86129525     0.12400
S2423       S  0.56801773  0.82985322  0.83087428    -0.05800
C2424       C  0.55093234  0.83455323  0.84202884    -0.09200
C2425       C  0.55248212  0.83006164  0.85809189    -0.25800
S2426       S  0.59815222  0.80264657  0.89362197    -0.03000
C2427       C  0.61552480  0.79945548  0.88237355    -0.16500
C2428       C  0.61375901  0.80411179  0.86646870    -0.14500
H2429       H  0.60064035  0.81578456  0.83805857     0.20900
H2430       H  0.56527041  0.81740643  0.88663273     0.16900
H2431       H  0.54310383  0.83172621  0.86703288     0.19500
H2432       H  0.62332152  0.80330676  0.85758811     0.12800
C2433       C  0.46750787  0.81227509  0.84347305     0.16700
C2434       C  0.45414661  0.80180364  0.84251713    -0.32400
C2435       C  0.44846141  0.79470084  0.85668576     0.21100
C2436       C  0.45555718  0.79781640  0.87133223     0.03300
C2437       C  0.46894775  0.80851951  0.87233008    -0.22100
C2438       C  0.47474125  0.81563733  0.85802485     0.12400
S2439       S  0.47670067  0.82121232  0.82739035    -0.05800
C2440       C  0.49048787  0.83001803  0.84026113    -0.09200
C2441       C  0.48793093  0.82584490  0.85624782    -0.25800
S2442       S  0.44668615  0.78724932  0.88693899    -0.03000
C2443       C  0.43341140  0.77856517  0.87339703    -0.16500
C2444       C  0.43593493  0.78389616  0.85780606    -0.14500
H2445       H  0.44856876  0.79905685  0.83112592     0.20900
H2446       H  0.47474225  0.81099420  0.88366824     0.16900
H2447       H  0.49558307  0.82977533  0.86602194     0.19500
H2448       H  0.42899929  0.77991068  0.84754029     0.12800
C2449       C  0.45277469  0.87973325  0.77760501     0.16700
C2450       C  0.46818678  0.87244679  0.77894285    -0.32400
C2451       C  0.47323949  0.86719497  0.79415561     0.21100
C2452       C  0.46350676  0.86928527  0.80750124     0.03300
C2453       C  0.44801271  0.87640503  0.80613858    -0.22100
C2454       C  0.44286675  0.88147116  0.79089547     0.12400
S2455       S  0.44406341  0.88626044  0.76012724    -0.05800
C2456       C  0.42678248  0.89120017  0.77076889    -0.09200
C2457       C  0.42792028  0.88787760  0.78700925    -0.25800
S2458       S  0.47223122  0.86268693  0.82495370    -0.03000
C2459       C  0.48913840  0.85661877  0.81416879    -0.16500
C2460       C  0.48779566  0.85987776  0.79786293    -0.14500
H2461       H  0.47586408  0.87081799  0.76854799     0.20900
H2462       H  0.44025619  0.87785020  0.81650123     0.16900
H2463       H  0.41802648  0.88942361  0.79542720     0.19500
H2464       H  0.49716064  0.85724454  0.78913290     0.12800
C2465       C  0.80875950  0.57613158  0.88935710     0.16700
C2466       C  0.81003121  0.56000294  0.88402568    -0.32400
C2467       C  0.82416236  0.55551646  0.87557020     0.21100
C2468       C  0.83678028  0.56635351  0.87314290     0.03300
C2469       C  0.83550093  0.58250779  0.87838790    -0.22100
C2470       C  0.82109254  0.58717748  0.88625738     0.12400
S2471       S  0.79199592  0.58440970  0.89851847    -0.05800
C2472       C  0.80137369  0.60311120  0.89751247    -0.09200
C2473       C  0.81688432  0.60263650  0.89081494    -0.25800
S2474       S  0.85289362  0.55838348  0.86277700    -0.03000
C2475       C  0.84220783  0.54037017  0.86066398    -0.16500
C2476       C  0.82709155  0.54079639  0.86839359    -0.14500
H2477       H  0.80018030  0.55146597  0.88589024     0.20900
H2478       H  0.84509310  0.59119622  0.87597540     0.16900
H2479       H  0.82438308  0.61323569  0.88866107     0.19500
H2480       H  0.81829459  0.53102209  0.86845046     0.12800
C2481       C  0.89977139  0.57361920  0.79929281     0.16700
C2482       C  0.90015802  0.56079959  0.81041593    -0.32400
C2483       C  0.88535416  0.55611580  0.81766771     0.21100
C2484       C  0.87084656  0.56377249  0.81398202     0.03300
C2485       C  0.87052238  0.57672501  0.80316703    -0.22100
C2486       C  0.88524200  0.58139035  0.79596573     0.12400
S2487       S  0.91619278  0.58126329  0.78884749    -0.05800
C2488       C  0.90325527  0.59519513  0.78017342    -0.09200
C2489       C  0.88718471  0.59367297  0.78516257    -0.25800
S2490       S  0.85399398  0.55527999  0.82267995    -0.03000
C2491       C  0.86656023  0.54137466  0.83183300    -0.16500
C2492       C  0.88298081  0.54339012  0.82803245    -0.14500
H2493       H  0.91142124  0.55459035  0.81311621     0.20900
H2494       H  0.85920167  0.58272169  0.80022898     0.16900
H2495       H  0.87734842  0.60143910  0.78123821     0.19500
H2496       H  0.89255981  0.53529170  0.83190319     0.12800
C2497       C  0.87812001  0.45815846  0.81648140     0.16700
C2498       C  0.88582196  0.44333301  0.81277447    -0.32400
C2499       C  0.89034651  0.44050925  0.79673656     0.21100
C2500       C  0.88754844  0.45206857  0.78504789     0.03300
C2501       C  0.87980750  0.46675423  0.78872480    -0.22100
C2502       C  0.87505107  0.46942488  0.80460877     0.12400
S2503       S  0.87179932  0.46426695  0.83513773    -0.05800
C2504       C  0.86466386  0.48207891  0.82673942    -0.09200
C2505       C  0.86725931  0.48293316  0.81032820    -0.25800
S2506       S  0.89285335  0.44611814  0.76621439    -0.03000
C2507       C  0.89883269  0.42768319  0.77389875    -0.16500
C2508       C  0.89674014  0.42641380  0.79036954    -0.14500
H2509       H  0.88797682  0.43431535  0.82192621     0.20900
H2510       H  0.87730926  0.47562158  0.77950806     0.16900
H2511       H  0.86393002  0.49318872  0.80294061     0.19500
H2512       H  0.89863184  0.41537293  0.79711801     0.12800
C2513       C  0.82021994  0.45743746  0.85479342     0.16700
C2514       C  0.80966433  0.44419588  0.85300032    -0.32400
C2515       C  0.80261720  0.43756113  0.86684008     0.21100
C2516       C  0.80580015  0.44374754  0.88187648     0.03300
C2517       C  0.81646340  0.45700430  0.88367874    -0.22100
C2518       C  0.82360250  0.46363223  0.86979134     0.12400
S2519       S  0.82942797  0.46763641  0.83940880    -0.05800
C2520       C  0.83824006  0.48040956  0.85326359    -0.09200
C2521       C  0.83397133  0.47671816  0.86898702    -0.25800
S2522       S  0.79593740  0.43361035  0.89709725    -0.03000
C2523       C  0.78764352  0.42079412  0.88298664    -0.16500
C2524       C  0.79228444  0.42456322  0.86741077    -0.14500
H2525       H  0.80699065  0.43930053  0.84129655     0.20900
H2526       H  0.81906375  0.46195808  0.89536855     0.16900
H2527       H  0.83790955  0.48356622  0.87931270     0.19500
H2528       H  0.78850146  0.41789733  0.85690583     0.12800
C2529       C  0.85920045  0.55932228  0.20645513     0.16700
C2530       C  0.86119342  0.56763890  0.22087478    -0.32400
C2531       C  0.87542165  0.57678362  0.22294030     0.21100
C2532       C  0.88719194  0.57791328  0.21114617     0.03300
C2533       C  0.88516929  0.56955995  0.19656291    -0.22100
C2534       C  0.87090598  0.56017478  0.19454300     0.12400
S2535       S  0.84333149  0.54661014  0.20242008    -0.05800
C2536       C  0.85231446  0.54229337  0.18433025    -0.09200
C2537       C  0.86700685  0.55033932  0.18175913    -0.25800
S2538       S  0.90316261  0.59055923  0.21611354    -0.03000
C2539       C  0.89376945  0.59416186  0.23425489    -0.16500
C2540       C  0.87915960  0.58587714  0.23607576    -0.14500
H2541       H  0.85209084  0.56685873  0.23021217     0.20900
H2542       H  0.89431565  0.57025639  0.18727082     0.16900
H2543       H  0.87483438  0.54834667  0.17154071     0.19500
H2544       H  0.87113816  0.58719589  0.24627434     0.12800
C2545       C  0.81286698  0.56828383  0.15226777     0.16700
C2546       C  0.80511072  0.58338029  0.15247037    -0.32400
C2547       C  0.79590853  0.58778552  0.13906982     0.21100
C2548       C  0.79444679  0.57775020  0.12589766     0.03300
C2549       C  0.80250894  0.56268039  0.12558192    -0.22100
C2550       C  0.81170558  0.55821962  0.13911587     0.12400
S2551       S  0.82363425  0.56032273  0.16783706    -0.05800
C2552       C  0.82694093  0.54302700  0.15666939    -0.09200
C2553       C  0.81987442  0.54387120  0.14147900    -0.25800
S2554       S  0.78134118  0.58502993  0.11153378    -0.03000
C2555       C  0.77774727  0.60161044  0.12362404    -0.16500
C2556       C  0.78662360  0.60142669  0.13772885    -0.14500
H2557       H  0.80581586  0.59118098  0.16284837     0.20900
H2558       H  0.80129085  0.55459627  0.11546911     0.16900
H2559       H  0.82043690  0.53437724  0.13257794     0.19500
H2560       H  0.78559440  0.61044906  0.14708020     0.12800
C2561       C  0.79714448  0.45146022  0.12138867     0.16700
C2562       C  0.81211228  0.45962239  0.12344201    -0.32400
C2563       C  0.81478808  0.46770677  0.13809011     0.21100
C2564       C  0.80308813  0.46762925  0.15002492     0.03300
C2565       C  0.78817624  0.45980010  0.14786525    -0.22100
C2566       C  0.78551016  0.45184039  0.13335623     0.12400
S2567       S  0.79175868  0.43939976  0.10541451    -0.05800
C2568       C  0.77374006  0.43496256  0.11518150    -0.09200
C2569       C  0.77212240  0.44278623  0.12974147    -0.25800
S2570       S  0.80803620  0.47853889  0.16659220    -0.03000
C2571       C  0.82624067  0.48343496  0.15760429    -0.16500
C2572       C  0.82812930  0.47690438  0.14236230    -0.14500
H2573       H  0.82130767  0.45950568  0.11417219     0.20900
H2574       H  0.77902183  0.45982504  0.15718532     0.16900
H2575       H  0.76213452  0.44078943  0.13798340     0.19500
H2576       H  0.83820398  0.47965412  0.13446111     0.12800
C2577       C  0.85851315  0.45825619  0.19799737     0.16700
C2578       C  0.85805367  0.44399377  0.20711106    -0.32400
C2579       C  0.87220955  0.43946686  0.21537348     0.21100
C2580       C  0.88637753  0.44851984  0.21454706     0.03300
C2581       C  0.88691731  0.46273272  0.20514615    -0.22100
C2582       C  0.87260446  0.46740929  0.19700216     0.12400
S2583       S  0.84217760  0.46646707  0.18825576    -0.05800
C2584       C  0.85425370  0.48265288  0.18261363    -0.09200
C2585       C  0.87026921  0.48130687  0.18812661    -0.25800
S2586       S  0.90176585  0.44127363  0.22664779    -0.03000
C2587       C  0.88878012  0.42606084  0.23303180    -0.16500
C2588       C  0.87357543  0.42665951  0.22568057    -0.14500
H2589       H  0.84694408  0.43698668  0.20815825     0.20900
H2590       H  0.89781881  0.47010215  0.20461760     0.16900
H2591       H  0.87965166  0.49032936  0.18617721     0.19500
H2592       H  0.86359317  0.41847154  0.22828894     0.12800
C2593       C  0.57107988  0.83496270  0.13713498     0.16700
C2594       C  0.58742369  0.83229512  0.13294480    -0.32400
C2595       C  0.59139985  0.81741360  0.12568756     0.21100
C2596       C  0.57960055  0.80589390  0.12230292     0.03300
C2597       C  0.56332395  0.80850198  0.12667194    -0.22100
C2598       C  0.55945068  0.82314933  0.13437262     0.12400
S2599       S  0.56364506  0.85201602  0.14629537    -0.05800
C2600       C  0.54470630  0.84282016  0.14724167    -0.09200
C2601       C  0.54450215  0.82745177  0.14025808    -0.25800
S2602       S  0.58701312  0.78836542  0.11403258    -0.03000
C2603       C  0.60630242  0.79636028  0.11570298    -0.16500
C2604       C  0.60672869  0.81195194  0.12202845    -0.14500
H2605       H  0.59669380  0.84124941  0.13557203     0.20900
H2606       H  0.55414052  0.79931890  0.12455587     0.16900
H2607       H  0.53400307  0.81952813  0.13974483     0.19500
H2608       H  0.61779878  0.81857270  0.12465915     0.12800
C2609       C  0.56662251  0.86519354  0.19583577     0.16700
C2610       C  0.57890328  0.86222302  0.20694732    -0.32400
C2611       C  0.58568923  0.87553567  0.21492278     0.21100
C2612       C  0.58070064  0.89128938  0.21207859     0.03300
C2613       C  0.56842385  0.89433956  0.20067753    -0.22100
C2614       C  0.56149923  0.88087275  0.19266204     0.12400
S2615       S  0.55614516  0.85035775  0.18598559    -0.05800
C2616       C  0.54480689  0.86529349  0.17693365    -0.09200
C2617       C  0.54891027  0.88099145  0.18179072    -0.25800
S2618       S  0.59034896  0.90545549  0.22404871    -0.03000
C2619       C  0.60101764  0.88977521  0.23291591    -0.16500
C2620       C  0.59720220  0.87464599  0.22655166    -0.14500
H2621       H  0.58275827  0.84995036  0.20957823     0.20900
H2622       H  0.56421596  0.90656192  0.19841012     0.16900
H2623       H  0.54260812  0.89184236  0.17797355     0.19500
H2624       H  0.60234855  0.86324395  0.23051558     0.12800
C2625       C  0.45899881  0.87959802  0.18282001     0.16700
C2626       C  0.44332151  0.88605737  0.18437714    -0.32400
C2627       C  0.43824774  0.89098637  0.19962787     0.21100
C2628       C  0.44831580  0.88974398  0.21281926     0.03300
C2629       C  0.46402411  0.88315791  0.21127185    -0.22100
C2630       C  0.46905043  0.87805522  0.19598179     0.12400
S2631       S  0.46744120  0.87311119  0.16527398    -0.05800
C2632       C  0.48477219  0.86792549  0.17569879    -0.09200
C2633       C  0.48377480  0.87128881  0.19199882    -0.25800
S2634       S  0.43940453  0.89596556  0.23037001    -0.03000
C2635       C  0.42187340  0.89993227  0.21977585    -0.16500
C2636       C  0.42316593  0.89676186  0.20354840    -0.14500
H2637       H  0.43534520  0.88706943  0.17414965     0.20900
H2638       H  0.47191096  0.88190788  0.22153764     0.20900
H2639       H  0.49336738  0.86896804  0.20053762     0.19500
H2640       H  0.41325912  0.89796126  0.19511698     0.12800
C2641       C  0.46351634  0.82216405  0.14707447     0.16700
C2642       C  0.45186903  0.80986775  0.14843768    -0.32400
C2643       C  0.44483253  0.80389037  0.13439375     0.21100
C2644       C  0.44893599  0.80986724  0.11948178     0.03300
C2645       C  0.46069214  0.82233106  0.11808383    -0.22100
C2646       C  0.46794602  0.82825087  0.13226475     0.12400
S2647       S  0.47400221  0.83014671  0.16281584    -0.05800
C2648       C  0.48474430  0.84196007  0.14950496    -0.09200
C2649       C  0.48022929  0.83962472  0.13359212    -0.25800
S2650       S  0.43849815  0.80057723  0.10404868    -0.03000
C2651       C  0.42861183  0.78863102  0.11803568    -0.16500
C2652       C  0.43343524  0.79187287  0.13362251    -0.14500
H2653       H  0.44857272  0.80497148  0.16000215     0.20900
H2654       H  0.46417819  0.82704113  0.10650596     0.16900
H2655       H  0.48607369  0.84547928  0.12352468     0.19500
H2656       H  0.42865374  0.78578925  0.14410076     0.12800
C2657       C  0.16775352  0.56292475  0.80059656     0.16700
C2658       C  0.17099368  0.57282961  0.78737575    -0.32400
C2659       C  0.15767730  0.57914233  0.77895154     0.21100
C2660       C  0.14177291  0.57588971  0.78341851     0.03300
C2661       C  0.13851693  0.56605238  0.79677733    -0.22100
C2662       C  0.15187986  0.55969283  0.80523281     0.12400
S2663       S  0.18222608  0.55293935  0.81147237    -0.05800
C2664       C  0.16679248  0.54455103  0.82275511    -0.09200
C2665       C  0.15127365  0.54919767  0.81796013    -0.25800
S2666       S  0.12742661  0.58467909  0.77123357    -0.03000
C2667       C  0.14310455  0.59278525  0.76003506    -0.16500
C2668       C  0.15849629  0.58873446  0.76566787    -0.14500
H2669       H  0.18337477  0.57525492  0.78360894     0.20900
H2670       H  0.12613614  0.56327744  0.80028859     0.16900
H2671       H  0.14011505  0.54433520  0.82294146     0.19500
H2672       H  0.16985338  0.59266385  0.76032651     0.12800
C2673       C  0.22331188  0.57767589  0.88351276     0.16700
C2674       C  0.21787514  0.56165765  0.88150736    -0.32400
C2675       C  0.20509843  0.55882090  0.87070879     0.21100
C2676       C  0.19750097  0.57137123  0.86276933     0.03300
C2677       C  0.20299696  0.58746586  0.86466981    -0.22100
C2678       C  0.21628461  0.59023952  0.87498705     0.12400
S2679       S  0.23986940  0.58327483  0.89466778    -0.05800
C2680       C  0.23786051  0.60268140  0.88732982    -0.09200
C2681       C  0.22467442  0.60457721  0.87703395    -0.25800
S2682       S  0.18228401  0.56504051  0.85017856    -0.03000
C2683       C  0.18676610  0.54501186  0.85484216    -0.16500
C2684       C  0.19926840  0.54392508  0.86614965    -0.14500
H2685       H  0.22382124  0.55171800  0.88760233     0.20900
H2686       H  0.19758795  0.59728465  0.85793953     0.16900
H2687       H  0.22206457  0.61561883  0.87051691     0.19500
H2688       H  0.20459843  0.53281388  0.87053205     0.12800
C2689       C  0.21738937  0.44868917  0.88177895     0.16700
C2690       C  0.21549367  0.46501399  0.87749104    -0.32400
C2691       C  0.20104877  0.46951056  0.86974095     0.21100
C2692       C  0.18864893  0.45849662  0.86699209     0.03300
C2693       C  0.19057280  0.44208523  0.87117794    -0.22100
C2694       C  0.20535194  0.43743157  0.87833919     0.12400
S2695       S  0.23474260  0.44055162  0.88973879    -0.05800
C2696       C  0.22603409  0.42165863  0.88780902    -0.09200
C2697       C  0.21031751  0.42188606  0.88166150    -0.25800
S2698       S  0.17206301  0.46667608  0.85751884    -0.03000
C2699       C  0.18244306  0.48492768  0.85621005    -0.16500
C2700       C  0.19765325  0.48448030  0.86353068    -0.14500
H2701       H  0.22514252  0.47372675  0.87953634     0.20900
H2702       H  0.18122371  0.43324312  0.86846011     0.16900
H2703       H  0.20330116  0.41113262  0.87883924     0.19500
H2704       H  0.20613199  0.49454321  0.86391459     0.12800
C2705       C  0.16004227  0.46243618  0.80768399     0.16700
C2706       C  0.16188936  0.44886560  0.79784230    -0.32400
C2707       C  0.14855640  0.44408256  0.78853240     0.21100
C2708       C  0.13386155  0.45225200  0.78893312     0.03300
C2709       C  0.13184618  0.46566210  0.79919825    -0.22100
C2710       C  0.14531399  0.47054219  0.80852602     0.12400
S2711       S  0.17540528  0.47110959  0.81848172    -0.05800
C2712       C  0.16177344  0.48556004  0.82499330    -0.09200
C2713       C  0.14623249  0.48378639  0.81849881    -0.25800
S2714       S  0.11987911  0.44518332  0.77520337    -0.03000
C2715       C  0.13421352  0.43128951  0.76884431    -0.16500
C2716       C  0.14870055  0.43204674  0.77737976    -0.14500
H2717       H  0.17346315  0.44265435  0.79699185     0.20900
H2718       H  0.12051415  0.47233511  0.79949303     0.16900
H2719       H  0.13629017  0.49214443  0.82053269     0.19500
H2720       H  0.15931727  0.42466505  0.77494197     0.12800
C2721       C  0.57601392  0.23166236  0.86927452     0.16700
C2722       C  0.56377871  0.21976683  0.87100806    -0.32400
C2723       C  0.55768067  0.21228305  0.85707178     0.21100
C2724       C  0.56360824  0.21633379  0.84210098     0.03300
C2725       C  0.57582400  0.22816317  0.84037785    -0.22100
C2726       C  0.58177436  0.23573827  0.85425686     0.12400
S2727       S  0.58475783  0.24268901  0.88451717    -0.05800
C2728       C  0.59616507  0.25304924  0.87045595    -0.09200
C2729       C  0.59321984  0.24788377  0.85486677    -0.25800
S2730       S  0.55404678  0.20654956  0.82664438    -0.03000
C2731       C  0.54176747  0.19680146  0.84039565    -0.16500
C2732       C  0.54517133  0.20113755  0.85615689    -0.14500
H2733       H  0.55900112  0.21669182  0.88267868     0.20900
H2734       H  0.58028032  0.23156740  0.82866986     0.16900
H2735       H  0.59904568  0.25292257  0.84436323     0.19500
H2736       H  0.53833977  0.19685192  0.86639358     0.12800
C2737       C  0.57168190  0.13709715  0.77991933     0.16700
C2738       C  0.55677886  0.14505020  0.78203483    -0.32400
C2739       C  0.55412991  0.15324677  0.79649946     0.21100
C2740       C  0.56548530  0.15314134  0.80865782     0.03300
C2741       C  0.58054434  0.14526732  0.80649586    -0.22100
C2742       C  0.58341341  0.13743999  0.79175741     0.12400
S2743       S  0.57792132  0.12835339  0.76242529    -0.05800
C2744       C  0.59686642  0.12563205  0.77072983    -0.09200
C2745       C  0.59786241  0.13085256  0.78653923    -0.25800
S2746       S  0.55921833  0.16327341  0.82557335    -0.03000
C2747       C  0.54116196  0.16793765  0.81599593    -0.16500
C2748       C  0.54055567  0.16196678  0.80042167    -0.14500
H2749       H  0.54779674  0.14526901  0.77259298     0.20900
H2750       H  0.58975660  0.14556451  0.81571399     0.16900
H2751       H  0.60910180  0.13147038  0.79324574     0.19500
H2752       H  0.53042302  0.16356420  0.79233182     0.12800
C2753       C  0.44188861  0.13940670  0.78979285     0.16700
C2754       C  0.45122548  0.14051054  0.80388509    -0.32400
C2755       C  0.46226217  0.15358280  0.80530122     0.21100
C2756       C  0.46398717  0.16486149  0.79312483     0.03300
C2757       C  0.45474405  0.16374209  0.77913843    -0.22100
C2758       C  0.44367097  0.15086459  0.77781166     0.12400
S2759       S  0.42698328  0.12523840  0.78592701    -0.05800
C2760       C  0.42309937  0.13505897  0.76811141    -0.09200
C2761       C  0.43301961  0.14843816  0.76547382    -0.25800
S2762       S  0.47831717  0.17942273  0.79658991    -0.03000
C2763       C  0.48189008  0.17066994  0.81493312    -0.16500
C2764       C  0.47262189  0.15682656  0.81789433    -0.14500
H2765       H  0.44981274  0.13170582  0.81338378     0.20900
H2766       H  0.45603747  0.17264596  0.76970544     0.16900
H2767       H  0.43185419  0.15656127  0.75536852     0.19500
H2768       H  0.47382966  0.14926753  0.82839608     0.12800
C2769       C  0.45585769  0.21013184  0.84575914     0.16700
C2770       C  0.44108988  0.21845453  0.84463090    -0.32400
C2771       C  0.43615317  0.22780721  0.85772669     0.21100
C2772       C  0.44523714  0.22864017  0.87160734     0.03300
C2773       C  0.45997102  0.21993350  0.87287245    -0.22100
C2774       C  0.46513880  0.21080537  0.85950341     0.12400
S2775       S  0.46453337  0.19960873  0.83046820    -0.05800
C2776       C  0.48119521  0.19582780  0.84242129    -0.09200
C2777       C  0.47962718  0.20252727  0.85771349    -0.25800
S2778       S  0.43748764  0.24204313  0.88548691    -0.03000
C2779       C  0.42215242  0.24672670  0.87215713    -0.16500
C2780       C  0.42299686  0.23792289  0.85804456    -0.14500
H2781       H  0.43406708  0.21822242  0.83370489     0.20900
H2782       H  0.46739370  0.22078350  0.88350241     0.16900
H2783       H  0.48878131  0.20175391  0.86695421     0.19500
H2784       H  0.41483183  0.23952424  0.84802762     0.12800
C2785       C  0.87540917  0.81097117  0.55099326     0.16700
C2786       C  0.88575349  0.80678787  0.56376188    -0.32400
C2787       C  0.88800416  0.79015977  0.56715443     0.21100
C2788       C  0.88030003  0.77828991  0.55822140     0.03300
C2789       C  0.86987613  0.78245448  0.54563207    -0.22100
C2790       C  0.86760649  0.79899295  0.54229501     0.12400
S2791       S  0.87172276  0.83031602  0.54412526    -0.05800
C2792       C  0.85952286  0.82209458  0.52941092    -0.09200
C2793       C  0.85840295  0.80526905  0.53014802    -0.25800
S2794       S  0.88365361  0.75893736  0.56477803    -0.03000
C2795       C  0.89561240  0.76669973  0.57984560    -0.16500
C2796       C  0.89677429  0.78356539  0.57960762    -0.14500
H2797       H  0.89179082  0.81606645  0.57072757     0.20900
H2798       H  0.86371613  0.77317760  0.53875792     0.16900
H2799       H  0.85184930  0.79790830  0.52158372     0.19500
H2800       H  0.90260494  0.79068478  0.58883593     0.12800
C2801       C  0.82013435  0.85838244  0.55327905     0.16700
C2802       C  0.81052597  0.85912847  0.56705855    -0.32400
C2803       C  0.80346251  0.87408286  0.57104388     0.21100
C2804       C  0.80569011  0.88784421  0.56182073     0.03300
C2805       C  0.81548483  0.88713680  0.54800529    -0.22100
C2806       C  0.82266003  0.87208554  0.54403875     0.12400
S2807       S  0.82887034  0.84106120  0.54592506    -0.05800
C2808       C  0.83621603  0.85224882  0.53007763    -0.09200
C2809       C  0.83204812  0.86868403  0.53087546    -0.25800
S2810       S  0.79569893  0.90474031  0.56909243    -0.03000
C2811       C  0.78875894  0.89302687  0.58482677    -0.16500
C2812       C  0.79388382  0.87696418  0.58404191    -0.14500
H2813       H  0.80848496  0.84843591  0.57431383     0.20900
H2814       H  0.81733324  0.89776636  0.54061837     0.16900
H2815       H  0.83512248  0.87759570  0.52185279     0.19500
H2816       H  0.79085428  0.86770202  0.59273872     0.12800
C2817       C  0.80706974  0.88431716  0.43592393     0.16700
C2818       C  0.82214122  0.88036759  0.44293421    -0.32400
C2819       C  0.82254995  0.86725012  0.45375053     0.21100
C2820       C  0.80856323  0.85856863  0.45738735     0.03300
C2821       C  0.79356076  0.86268874  0.45064870    -0.22100
C2822       C  0.79315926  0.87571968  0.43991893     0.12400
S2823       S  0.80409669  0.89827110  0.42095993    -0.05800
C2824       C  0.78393092  0.89237525  0.42015281    -0.09200
C2825       C  0.77993462  0.88046779  0.43120194    -0.25800
S2826       S  0.81123703  0.84343446  0.47098652    -0.03000
C2827       C  0.83147532  0.84876720  0.47205400    -0.16500
C2828       C  0.83580494  0.86168492  0.46222287    -0.14500
H2829       H  0.83309534  0.88698579  0.43985387     0.20900
H2830       H  0.78266214  0.85586120  0.45349079     0.16900
H2831       H  0.76829782  0.87427462  0.43156647     0.19500
H2832       H  0.84772282  0.86729651  0.46203349     0.12800
C2833       C  0.85879218  0.80397327  0.44813951     0.16700
C2834       C  0.85652261  0.79321508  0.43541718    -0.32400
C2835       C  0.87000477  0.78428566  0.43012328     0.21100
C2836       C  0.88525301  0.78608057  0.43690424     0.03300
C2837       C  0.88758677  0.79703920  0.44960717    -0.22100
C2838       C  0.87394671  0.80582051  0.45511582     0.12400
S2839       S  0.84356536  0.81478444  0.45709796    -0.05800
C2840       C  0.85759804  0.82192802  0.47065705    -0.09200
C2841       C  0.87334335  0.81616329  0.46798997    -0.25800
S2842       S  0.89978127  0.77341325  0.42886246    -0.03000
C2843       C  0.88496005  0.76548707  0.41649715    -0.16500
C2844       C  0.86979240  0.77265332  0.41851607    -0.14500
H2845       H  0.84461274  0.79150305  0.43016396     0.20900
H2846       H  0.89936751  0.79832999  0.45523269     0.16900
H2847       H  0.88368975  0.81886407  0.47552699     0.19500
H2848       H  0.85892922  0.76929245  0.41199296     0.12800
C2849       C  0.80395497  0.16120005  0.56979911     0.16700
C2850       C  0.81376774  0.17213528  0.56129929    -0.32400
C2851       C  0.82345248  0.16600318  0.54895330     0.21100
C2852       C  0.82370564  0.14957003  0.54549232     0.03300
C2853       C  0.81396616  0.13851113  0.55418030    -0.22100
C2854       C  0.80387715  0.14475020  0.56634616     0.12400
S2855       S  0.79065167  0.16678309  0.58428914    -0.05800
C2856       C  0.78443359  0.14680512  0.58587489    -0.09200
C2857       C  0.79267057  0.13631767  0.57561704    -0.25800
S2858       S  0.83543312  0.14487215  0.52924517    -0.03000
C2859       C  0.83976939  0.16533087  0.52688953    -0.16500
C2860       C  0.83254660  0.17505962  0.53839615    -0.14500
H2861       H  0.81340987  0.18501156  0.56384232     0.20900
H2862       H  0.81383174  0.12573166  0.55120388     0.16900
H2863       H  0.79037474  0.12341448  0.57474003     0.19500
H2864       H  0.83306654  0.18818739  0.53845231     0.12800
C2865       C  0.87817900  0.20137113  0.55115600     0.16700
C2866       C  0.88477406  0.20381201  0.56648523    -0.32400
C2867       C  0.89001805  0.21957448  0.57058013     0.21100
C2868       C  0.88897747  0.23229454  0.55981702     0.03300
C2869       C  0.88223541  0.22988270  0.54457758    -0.22100
C2870       C  0.87676248  0.21419836  0.54059323     0.12400
S2871       S  0.87116952  0.18322014  0.54371377    -0.05800
C2872       C  0.86577089  0.19305455  0.52623768    -0.09200
C2873       C  0.86959543  0.20957692  0.52648286    -0.25800
S2874       S  0.89533258  0.25061611  0.56732482    -0.03000
C2875       C  0.89930632  0.24116560  0.58526693    -0.16500
C2876       C  0.89577449  0.22463409  0.58520871    -0.14500
H2877       H  0.88559426  0.19390065  0.57493131     0.20900
H2878       H  0.88106358  0.23987167  0.53625812     0.16900
H2879       H  0.86725083  0.21790017  0.51675147     0.19500
H2880       H  0.89653182  0.21689806  0.59563413     0.12800
C2881       C  0.88906856  0.23060269  0.43304966     0.16700
C2882       C  0.88278151  0.22848208  0.44850745    -0.32400
C2883       C  0.87604996  0.21329080  0.45244228     0.21100
C2884       C  0.87600599  0.20054073  0.44171040     0.03300
C2885       C  0.88217988  0.20268895  0.42615405    -0.22100
C2886       C  0.88848003  0.21806851  0.42204637     0.12400
S2887       S  0.89656756  0.24850773  0.42558093    -0.05800
C2888       C  0.89841151  0.23925194  0.40724148    -0.09200
C2889       C  0.89371481  0.22301241  0.40720305    -0.25800
S2890       S  0.86779036  0.18291819  0.44926562    -0.03000
C2891       C  0.86384996  0.19297497  0.46699978    -0.16500
C2892       C  0.86893782  0.20914718  0.46670276    -0.14500
H2893       H  0.88279824  0.23837499  0.45700991     0.20900
H2894       H  0.88179589  0.19291238  0.41753409     0.16900
H2895       H  0.89330772  0.21547481  0.39662337     0.19500
H2896       H  0.86764703  0.21755528  0.47654987     0.12800
C2897       C  0.79853220  0.13733740  0.43706046     0.16700
C2898       C  0.81037857  0.13570648  0.44918483    -0.32400
C2899       C  0.81877850  0.14983400  0.45423707     0.21100
C2900       C  0.81545054  0.16484565  0.44760238     0.03300
C2901       C  0.80365292  0.16646006  0.43564887    -0.22100
C2902       C  0.79536836  0.15244567  0.43060212     0.12400
S2903       S  0.78709859  0.12191270  0.42857653    -0.05800
C2904       C  0.77810515  0.13609586  0.41615639    -0.09200
C2905       C  0.78377122  0.15181838  0.41892056    -0.25800
S2906       S  0.82627445  0.18061427  0.45569878    -0.03000
C2907       C  0.83573786  0.16701206  0.46828404    -0.16500
C2908       C  0.83042338  0.15100298  0.46606329    -0.14500
H2909       H  0.81295582  0.12398422  0.45442566     0.20900
H2910       H  0.80099578  0.17820716  0.43048688     0.16900
H2911       H  0.77986294  0.16245811  0.41238205     0.19500
H2912       H  0.83445676  0.14080371  0.47317151     0.12800
C2913       C  0.23183174  0.88270021  0.56552931     0.16700
C2914       C  0.23052371  0.87551897  0.55037513    -0.32400
C2915       C  0.21534684  0.86906343  0.54587492     0.21100
C2916       C  0.20190335  0.87004893  0.55579846     0.03300
C2917       C  0.20322079  0.87716340  0.57102682    -0.22100
C2918       C  0.21852676  0.88328289  0.57569243     0.12400
S2919       S  0.24953584  0.88988937  0.57375513    -0.05800
C2920       C  0.23907631  0.89340579  0.59125613    -0.09200
C2921       C  0.22264923  0.88931108  0.59047298    -0.25800
S2922       S  0.18452697  0.86177578  0.54777566    -0.03000
C2923       C  0.19559619  0.85642205  0.53098448    -0.16500
C2924       C  0.21186978  0.86120456  0.53182791    -0.14500
H2925       H  0.24099890  0.87464381  0.54256411     0.20900
H2926       H  0.19286159  0.87760467  0.57901943     0.16900
H2927       H  0.21440431  0.88969698  0.60056784     0.19500
H2928       H  0.22079990  0.85908632  0.52254215     0.12800
C2929       C  0.16740671  0.80939442  0.55269787     0.16700
C2930       C  0.16859331  0.79837400  0.56532186    -0.32400
C2931       C  0.15471135  0.78931778  0.56931166     0.21100
C2932       C  0.14011479  0.79106483  0.56129340     0.03300
C2933       C  0.13882991  0.80237683  0.54873968    -0.22100
C2934       C  0.15283941  0.81146448  0.54467723     0.12400
S2935       S  0.18339843  0.82022394  0.54505103    -0.05800
C2936       C  0.17041378  0.82796384  0.53083025    -0.09200
C2937       C  0.15444498  0.82228228  0.53228922    -0.25800
S2938       S  0.12494858  0.77823956  0.56806601    -0.03000
C2939       C  0.13856921  0.77061307  0.58185090    -0.16500
C2940       C  0.15388333  0.77779269  0.58093522    -0.14500
H2941       H  0.18000191  0.79661031  0.57153437     0.20900
H2942       H  0.12755888  0.80379606  0.54221912     0.16900
H2943       H  0.14470073  0.82521240  0.52409985     0.19500
H2944       H  0.16413547  0.77471540  0.58845711     0.12800
C2945       C  0.15616121  0.82125268  0.44741301     0.16700
C2946       C  0.14806667  0.81997911  0.43268720    -0.32400
C2947       C  0.14147501  0.80479414  0.42843034     0.21100
C2948       C  0.14271719  0.79145218  0.43840394     0.03300
C2949       C  0.15094690  0.79270080  0.45308081    -0.22100
C2950       C  0.15767246  0.80786244  0.45727210     0.12400
S2951       S  0.16453698  0.83869761  0.45507242    -0.05800
C2952       C  0.17033646  0.82788146  0.47180494    -0.09200
C2953       C  0.16589699  0.81152869  0.47109882    -0.25800
S2954       S  0.13425190  0.77401186  0.43070464    -0.03000
C2955       C  0.12927579  0.78471433  0.41368726    -0.16500
C2956       C  0.13384812  0.80099841  0.41432297    -0.14500
H2957       H  0.14698985  0.83037017  0.42484809     0.20900
H2958       H  0.15213324  0.78228526  0.46087135     0.16900
H2959       H  0.16822106  0.80277009  0.48045583     0.19500
H2960       H  0.13229610  0.80951096  0.40458994     0.12800
C2961       C  0.21680520  0.85688482  0.45061378     0.16700
C2962       C  0.22841938  0.85586168  0.43841856    -0.32400
C2963       C  0.23519026  0.87036914  0.43266350     0.21100
C2964       C  0.23068091  0.88536314  0.43863853     0.03300
C2965       C  0.21894275  0.88640587  0.45087515    -0.22100
C2966       C  0.21215862  0.87180454  0.45670417     0.12400
S2967       S  0.20790844  0.84055064  0.45975453    -0.05800
C2968       C  0.19764767  0.85384365  0.47202473    -0.09200
C2969       C  0.20114238  0.87012307  0.46898069    -0.25800
S2970       S  0.24056218  0.90145375  0.42967377    -0.03000
C2971       C  0.25072748  0.88770453  0.41773929    -0.16500
C2972       C  0.24657429  0.87164213  0.42083934    -0.14500
H2973       H  0.23216249  0.84421273  0.43370773     0.20900
H2974       H  0.21535830  0.89803788  0.45572869     0.16900
H2975       H  0.19636291  0.88016836  0.47586170     0.19500
H2976       H  0.25150472  0.86127468  0.41453518     0.12800
C2977       C  0.56508630  0.14704404  0.18685916     0.16700
C2978       C  0.58108759  0.14186278  0.19018184    -0.32400
C2979       C  0.58384668  0.13324788  0.20452209     0.21100
C2980       C  0.57118895  0.12954250  0.21484175     0.03300
C2981       C  0.55530311  0.13486850  0.21159183    -0.22100
C2982       C  0.55265815  0.14388249  0.19754828     0.12400
S2983       S  0.55893457  0.15790209  0.17034944    -0.05800
C2984       C  0.53938849  0.15879785  0.17817640    -0.09200
C2985       C  0.53821052  0.15073220  0.19286654    -0.25800
S2986       S  0.57710508  0.11971922  0.23196135    -0.03000
C2987       C  0.59699081  0.12098309  0.22551413    -0.16500
C2988       C  0.59865934  0.12849653  0.21065941    -0.14500
H2989       H  0.59101308  0.14475423  0.18214782     0.20900
H2990       H  0.54547217  0.13247170  0.21989455     0.16900
H2991       H  0.52732837  0.15001101  0.20012037     0.19500
H2992       H  0.61025294  0.13128018  0.20512277     0.12800
C2993       C  0.56137201  0.20846610  0.15174806     0.16700
C2994       C  0.57291427  0.22092038  0.15315285    -0.32400
C2995       C  0.57860178  0.22830485  0.13907516     0.21100
C2996       C  0.57328496  0.22348975  0.12414260     0.03300
C2997       C  0.56179600  0.21085367  0.12271555    -0.22100
C2998       C  0.55595300  0.20353202  0.13686941     0.12400
S2999       S  0.55185351  0.19911638  0.16749345    -0.05800
C3000       C  0.54041556  0.18821116  0.15398495    -0.09200
C3001       C  0.54398604  0.19188804  0.13809645    -0.25800
S3002       S  0.58161949  0.23457429  0.10864314    -0.03000
C3003       C  0.59224983  0.24588396  0.12253251    -0.16500
C3004       C  0.58934593  0.24097067  0.13821713    -0.14500
H3005       H  0.57698374  0.22499716  0.16477176     0.20900
H3006       H  0.55732973  0.20713791  0.11112665     0.16900
H3007       H  0.53744044  0.18696414  0.12798530     0.19500
H3008       H  0.59478519  0.24648970  0.14866300     0.12800
C3009       C  0.45826984  0.20807078  0.14836244     0.16700
C3010       C  0.44553017  0.21935536  0.14908548    -0.32400
C3011       C  0.43980556  0.22601833  0.13469149     0.21100
C3012       C  0.44623900  0.22164695  0.12005339     0.03300
C3013       C  0.45901025  0.21016539  0.11929963    -0.22100
C3014       C  0.46490317  0.20355997  0.13381966     0.12400
S3015       S  0.46748770  0.19946033  0.16465873    -0.05800
C3016       C  0.48050802  0.18934814  0.15191529    -0.09200
C3017       C  0.47770521  0.19286405  0.13580561    -0.25800
S3018       S  0.43734937  0.23170972  0.10410852    -0.03000
C3019       C  0.42492920  0.24194827  0.11744660    -0.16500
C3020       C  0.42780227  0.23743307  0.13327299    -0.14500
H3021       H  0.44045544  0.22303224  0.16045999     0.20900
H3022       H  0.46429314  0.20672576  0.10795197     0.16900
H3023       H  0.48500206  0.18817744  0.12607770     0.19500
H3024       H  0.42138618  0.24233539  0.14349163     0.12800
C3025       C  0.45317698  0.14923431  0.18340310     0.16700
C3026       C  0.43725363  0.14327357  0.18504670    -0.32400
C3027       C  0.43286145  0.13620452  0.19973077     0.21100
C3028       C  0.44384360  0.13482252  0.21218450     0.03300
C3029       C  0.45972365  0.14093511  0.21058599    -0.22100
C3030       C  0.46400871  0.14829043  0.19599516     0.12400
S3031       S  0.46108464  0.15803290  0.16650041    -0.05800
C3032       C  0.47916663  0.16094565  0.17660489    -0.09200
C3033       C  0.47873212  0.15513660  0.19226659    -0.25800
S3034       S  0.43588731  0.12613124  0.22914376    -0.03000
C3035       C  0.41742938  0.12480312  0.21948538    -0.16500
C3036       C  0.41775275  0.13053324  0.20386596    -0.14500
H3037       H  0.42860494  0.14424031  0.17535882     0.20900
H3038       H  0.46830953  0.14017840  0.22034745     0.16900
H3039       H  0.48880077  0.15574554  0.20056837     0.19500
H3040       H  0.40724817  0.13108015  0.19609359     0.12800
C3041       C  0.21716809  0.56261961  0.14767664     0.16700
C3042       C  0.23048113  0.57312722  0.14604023    -0.32400
C3043       C  0.23318127  0.58033548  0.13108833     0.21100
C3044       C  0.22317269  0.57722374  0.11817212     0.03300
C3045       C  0.20978773  0.56656130  0.11979724    -0.22100
C3046       C  0.20695099  0.55946012  0.13492639     0.12400
S3047       S  0.21252366  0.55214598  0.16468071    -0.05800
C3048       C  0.19600772  0.54379354  0.15501005    -0.09200
C3049       C  0.19481015  0.54861101  0.13905495    -0.25800
S3050       S  0.22802229  0.58851092  0.10147229    -0.03000
C3051       C  0.24356015  0.59757455  0.11215945    -0.16500
C3052       C  0.24483026  0.59174057  0.12768377    -0.14500
H3053       H  0.23836162  0.57569434  0.15607797     0.20900
H3054       H  0.20179192  0.56413450  0.10982000     0.16900
H3055       H  0.18605856  0.54369710  0.13069852     0.19500
H3056       H  0.25307978  0.59665582  0.13653081     0.12800
C3057       C  0.13894365  0.57262784  0.21915455     0.16700
C3058       C  0.13814666  0.55914578  0.20879924    -0.32400
C3059       C  0.15198447  0.55569836  0.19931326     0.21100
C3060       C  0.16582285  0.56523600  0.20007533     0.03300
C3061       C  0.16651129  0.57870598  0.21012336    -0.22100
C3062       C  0.15287141  0.58206582  0.21957673     0.12400
S3063       S  0.12418134  0.57874130  0.23259310    -0.05800
C3064       C  0.13718148  0.59401764  0.23875724    -0.09200
C3065       C  0.15187548  0.59420691  0.23050923    -0.25800
S3066       S  0.18174793  0.55850922  0.18882720    -0.03000
C3067       C  0.16990809  0.54246953  0.18267686    -0.16500
C3068       C  0.15419145  0.54272793  0.18919999    -0.14500
H3069       H  0.12744969  0.55147443  0.20844462     0.20900
H3070       H  0.17743445  0.58603323  0.21088864     0.16900
H3071       H  0.16174296  0.60265380  0.23266693     0.19500
H3072       H  0.14505041  0.53348058  0.18719052     0.12800
C3073       C  0.17070317  0.46067298  0.20010146     0.16700
C3074       C  0.17226601  0.44829819  0.21150965    -0.32400
C3075       C  0.15819575  0.44342143  0.21983573     0.21100
C3076       C  0.14315409  0.45034012  0.21690974     0.03300
C3077       C  0.14155657  0.46257641  0.20532622    -0.22100
C3078       C  0.15566549  0.46758052  0.19708481     0.12400
S3079       S  0.18652525  0.46950582  0.18987441    -0.05800
C3080       C  0.17276209  0.48276106  0.18141841    -0.09200
C3081       C  0.15676533  0.48008474  0.18630675    -0.25800
S3082       S  0.12774494  0.44301543  0.22888519    -0.03000
C3083       C  0.14177354  0.43053234  0.23798305    -0.16500
C3084       C  0.15745729  0.43211231  0.23178016    -0.14500
H3085       H  0.18402303  0.44302042  0.21412910     0.20900
H3086       H  0.12990706  0.46826183  0.20312466     0.16900
H3087       H  0.14656964  0.48762538  0.18288450     0.19500
H3088       H  0.16796970  0.42544406  0.23595970     0.12800
C3089       C  0.20091767  0.46044216  0.13637826     0.16700
C3090       C  0.20146089  0.44571636  0.12803168    -0.32400
C3091       C  0.21603151  0.44166898  0.12018906     0.21100
C3092       C  0.22941734  0.45190725  0.12031432     0.03300
C3093       C  0.22881434  0.46672549  0.12855115    -0.22100
C3094       C  0.21435144  0.47059154  0.13671314     0.12400
S3095       S  0.18448838  0.46749522  0.14690862    -0.05800
C3096       C  0.19586772  0.48431174  0.15203819    -0.09200
C3097       C  0.21159418  0.48414237  0.14576922    -0.25800
S3098       S  0.24645921  0.44388600  0.11145554    -0.03000
C3099       C  0.23554131  0.42637757  0.10799333    -0.16500
C3100       C  0.21944015  0.42715356  0.11302469    -0.14500
H3101       H  0.19113528  0.43753836  0.12803485     0.20900
H3102       H  0.23932899  0.47464352  0.12903387     0.16900
H3103       H  0.22054152  0.49362985  0.14753344     0.19500
H3104       H  0.21106970  0.41698792  0.11278992     0.12800
C3105       C  0.14414230  0.23583027  0.55700524     0.16700
C3106       C  0.15305842  0.23292131  0.54300067    -0.32400
C3107       C  0.15910506  0.21718942  0.54048687     0.21100
C3108       C  0.15619186  0.20474412  0.55122126     0.03300
C3109       C  0.14743335  0.20770661  0.56537497    -0.22100
C3110       C  0.14158287  0.22354820  0.56802795     0.12400
S3111       S  0.13694429  0.25439385  0.56284240    -0.05800
C3112       C  0.13062520  0.24568988  0.58050520    -0.09200
C3113       C  0.13391861  0.22917189  0.58154900    -0.25800
S3114       S  0.16383265  0.18629578  0.54528140    -0.03000
C3115       C  0.17128885  0.19553189  0.52822218    -0.16500
C3116       C  0.16793780  0.21208709  0.52755407    -0.14500
H3117       H  0.15538161  0.24257137  0.53451298     0.20900
H3118       H  0.14538231  0.19813005  0.57400244     0.16900
H3119       H  0.13195827  0.22194283  0.59218218     0.19500
H3120       H  0.17134135  0.21996754  0.51774510     0.12800
C3121       C  0.21545428  0.16653808  0.55317698     0.16700
C3122       C  0.22580172  0.16835419  0.56629942    -0.32400
C3123       C  0.23343879  0.15446416  0.57237875     0.21100
C3124       C  0.23100686  0.13925092  0.56583004     0.03300
C3125       C  0.22050246  0.13738043  0.55259655    -0.22100
C3126       C  0.21279025  0.15142861  0.54645382     0.12400
S3127       S  0.20593251  0.18223663  0.54365214    -0.05800
C3128       C  0.19790619  0.16851122  0.53028169    -0.09200
C3129       C  0.20267460  0.15248215  0.53333854    -0.25800
S3130       S  0.24200950  0.12413940  0.57524725    -0.03000
C3131       C  0.24984648  0.13865237  0.58806909    -0.16500
C3132       C  0.24404164  0.15417922  0.58491451    -0.14500
H3133       H  0.22800637  0.18020046  0.57145415     0.20900
H3134       H  0.21857657  0.12559152  0.54722336     0.16900
H3135       H  0.19939294  0.14220121  0.52596788     0.19500
H3136       H  0.24750644  0.16497545  0.59145536     0.12800
C3137       C  0.20967992  0.15369531  0.44718811     0.16700
C3138       C  0.21316041  0.14731721  0.43199879    -0.32400
C3139       C  0.22921742  0.14223883  0.42891077     0.21100
C3140       C  0.24117966  0.14305008  0.44053166     0.03300
C3141       C  0.23774414  0.14961043  0.45560646    -0.22100
C3142       C  0.22182879  0.15507850  0.45852550     0.12400
S3143       S  0.19102038  0.16054944  0.45351253    -0.05800
C3144       C  0.19985333  0.16603555  0.47143757    -0.09200
C3145       C  0.21635796  0.16225074  0.47224827    -0.25800
S3146       S  0.25993258  0.13644317  0.43438201    -0.03000
C3147       C  0.25171496  0.13297523  0.41580362    -0.16500
C3148       C  0.23526385  0.13665232  0.41463953    -0.14500
H3149       H  0.20383442  0.14655570  0.42291742     0.20900
H3150       H  0.24713831  0.15065588  0.46459772     0.16900
H3151       H  0.22407639  0.16464210  0.48244733     0.19500
H3152       H  0.22823758  0.13576513  0.40374892     0.12800
C3153       C  0.16690115  0.20875082  0.44598547     0.16700
C3154       C  0.16648941  0.21829077  0.43204388    -0.32400
C3155       C  0.15129419  0.22424521  0.42686330     0.21100
C3156       C  0.13710045  0.22102476  0.43520911     0.03300
C3157       C  0.13750059  0.21131963  0.44907203    -0.22100
C3158       C  0.15268271  0.20520004  0.45415379     0.12400
S3159       S  0.18415353  0.20100626  0.45475379    -0.05800
C3160       C  0.17209819  0.19236006  0.46943301    -0.09200
C3161       C  0.15556853  0.19576243  0.46742745    -0.25800
S3162       S  0.11989236  0.22922415  0.42660074    -0.03000
C3163       C  0.13189959  0.23688113  0.41140365    -0.16500
C3164       C  0.14837657  0.23320400  0.41330220    -0.14500
H3165       H  0.17754814  0.22097715  0.42550362     0.20900
H3166       H  0.12644391  0.20859512  0.45559625     0.16900
H3167       H  0.14612891  0.19195890  0.47566175     0.19500
H3168       H  0.15776024  0.23643410  0.40476943     0.12800
loop_ 
_geom_bond_atom_site_label_1 
_geom_bond_atom_site_label_2 
_geom_bond_distance 
_geom_bond_site_symmetry_2 
_ccdc_geom_bond_type 
C1            C2   1.426       .  A
C1            C6   1.408       .  A
C1         C3160   1.505       .  S
C2            C3   1.416       .  A
C2         C3144   1.498       .  S
C3            C4   1.409       .  A
C3            H8   1.083       .  S
C4            C5   1.425       .  A
C4         C3128   1.502       .  S
C5            C6   1.412       .  A
C5         C3115   1.498       .  S
C6            H7   1.083       .  S
C9           C10   1.420       .  A
C9           C14   1.409       .  A
C9         C3096   1.493       .  S
C10          C11   1.408       .  A
C10        C3080   1.493       .  S
C11          C12   1.410       .  A
C11          H16   1.084       .  S
C12          C13   1.427       .  A
C12        C3067   1.499       .  S
C13          C14   1.404       .  A
C13        C3048   1.491       .  S
C14          H15   1.084       .  S
C17          C18   1.424       .  A
C17          C22   1.412       .  A
C17        C3032   1.501       .  S
C18          C19   1.410       .  A
C18        C3016   1.502       .  S
C19          C20   1.417       .  A
C19          H24   1.085       .  S
C20          C21   1.429       .  A
C20        C3000   1.491       .  S
C21          C22   1.412       .  A
C21        C2984   1.519       .  S
C22          H23   1.080       .  S
C25          C26   1.421       .  A
C25          C30   1.410       .  A
C25        C2968   1.490       .  S
C26          C27   1.408       .  A
C26        C2952   1.503       .  S
C27          C28   1.411       .  A
C27          H32   1.082       .  S
C28          C29   1.425       .  A
C28        C2936   1.494       .  S
C29          C30   1.412       .  A
C29        C2923   1.504       .  S
C30          H31   1.083       .  S
C33          C34   1.428       .  A
C33          C38   1.412       .  A
C33        C2907   1.504       .  S
C34          C35   1.415       .  A
C34        C2891   1.506       .  S
C35          C36   1.410       .  A
C35          H40   1.082       .  S
C36          C37   1.424       .  A
C36        C2872   1.509       .  S
C37          C38   1.412       .  A
C37        C2859   1.494       .  S
C38          H39   1.083       .  S
C41          C42   1.416       .  A
C41          C46   1.408       .  A
C41        C2840   1.494       .  S
C42          C43   1.403       .  A
C42        C2827   1.480       .  S
C43          C44   1.409       .  A
C43          H48   1.084       .  S
C44          C45   1.425       .  A
C44        C2808   1.497       .  S
C45          C46   1.412       .  A
C45        C2792   1.493       .  S
C46          H47   1.084       .  S
C49          C50   1.422       .  A
C49          C54   1.399       .  A
C49        C2763   1.485       .  S
C50          C51   1.417       .  A
C50        C2776   1.507       .  S
C51          C52   1.418       .  A
C51          H56   1.083       .  S
C52          C53   1.427       .  A
C52        C2731   1.498       .  S
C53          C54   1.410       .  A
C53        C2747   1.504       .  S
C54          H55   1.084       .  S
C57          C58   1.422       .  A
C57          C62   1.405       .  A
C57        C2712   1.494       .  S
C58          C59   1.413       .  A
C58        C2699   1.502       .  S
C59          C60   1.415       .  A
C59          H64   1.078       .  S
C60          C61   1.427       .  A
C60        C2683   1.521       .  S
C61          C62   1.410       .  A
C61        C2664   1.483       .  S
C62          H63   1.085       .  S
C65          C66   1.421       .  A
C65          C70   1.405       .  A
C65        C2648   1.492       .  S
C66          C67   1.410       .  A
C66        C2632   1.496       .  S
C67          C68   1.408       .  A
C67          H72   1.084       .  S
C68          C69   1.426       .  A
C68        C2616   1.491       .  S
C69          C70   1.414       .  A
C69        C2600   1.504       .  S
C70          H71   1.082       .  S
C73          C74   1.422       .  A
C73          C78   1.406       .  A
C73        C2571   1.480       .  S
C74          C75   1.410       .  A
C74        C2584   1.505       .  S
C75          C76   1.409       .  A
C75          H80   1.084       .  S
C76          C77   1.425       .  A
C76        C2536   1.482       .  S
C77          C78   1.409       .  A
C77        C2552   1.507       .  S
C78          H79   1.083       .  S
C81          C82   1.421       .  A
C81          C86   1.406       .  A
C81        C2504   1.500       .  S
C82          C83   1.415       .  A
C82        C2520   1.496       .  S
C83          C84   1.417       .  A
C83          H88   1.080       .  S
C84          C85   1.427       .  A
C84        C2475   1.514       .  S
C85          C86   1.408       .  A
C85        C2491   1.491       .  S
C86          H87   1.084       .  S
C89          C90   1.423       .  A
C89          C94   1.416       .  A
C89        C2440   1.497       .  S
C90          C91   1.407       .  A
C90        C2459   1.505       .  S
C91          C92   1.412       .  A
C91          H96   1.084       .  S
C92          C93   1.429       .  A
C92        C2408   1.499       .  S
C93          C94   1.417       .  A
C93        C2424   1.510       .  S
C94          H95   1.083       .  S
C97        C2427   1.496       .  S
C97          N98   1.379       .  A
C97         N102   1.362       .  A
N98          C99   1.377       .  A
C99        C2376   1.497       .  S
C99         N100   1.354       .  A
N100        C101   1.348       .  A
C101       C2392   1.471       .  S
C101        N102   1.353       .  A
C103       C2472   1.484       .  S
C103        N104   1.360       .  A
C103        N108   1.371       .  A
N104        C105   1.355       .  A
C105       C2360   1.468       .  S
C105        N106   1.352       .  A
N106        C107   1.352       .  A
C107       C2344   1.475       .  S
C107        N108   1.369       .  A
C109       C2312   1.477       .  S
C109        N110   1.374       .  A
C109        N114   1.358       .  A
N110        C111   1.371       .  A
C111       C2488   1.484       .  S
C111        N112   1.354       .  A
N112        C113   1.349       .  A
C113       C2328   1.466       .  S
C113        N114   1.352       .  A
C115       C2280   1.488       .  S
C115        N116   1.373       .  A
C115        N120   1.355       .  A
N116        C117   1.374       .  A
C117       C2795   1.476       .  S
C117        N118   1.355       .  A
N118        C119   1.350       .  A
C119       C2296   1.464       .  S
C119        N120   1.350       .  A
C121       C2811   1.489       .  S
C121        N122   1.353       .  A
C121        N126   1.372       .  A
N122        C123   1.347       .  A
C123       C2264   1.466       .  S
C123        N124   1.353       .  A
N124        C125   1.360       .  A
C125       C2248   1.482       .  S
C125        N126   1.376       .  A
C127       C2411   1.481       .  S
C127        N128   1.376       .  A
C127        N132   1.360       .  A
N128        C129   1.373       .  A
C129       C2216   1.490       .  S
C129        N130   1.353       .  A
N130        C131   1.348       .  A
C131       C2232   1.468       .  S
C131        N132   1.354       .  A
O133       Mg135   2.152       .  S
O133       Mg141   2.143       .  S
O133        C168   1.237       .  S
C134        H173   1.081       .  S
C134        O147   1.235       .  S
C134        O171   1.269       .  A
Mg135       O164   2.151       .  S
Mg135       O179   2.309       .  S
Mg135       O175   2.261       .  S
Mg135       O146   2.298       .  S
O136       Mg178   2.157       .  S
O136       Mg161   2.133       .  S
O136        C157   1.237       .  S
O137        C168   1.271       .  A
O137       Mg161   2.308       .  S
C138       C2331   1.468       .  S
C138        O140   1.272       .  A
C138        O152   1.272       .  A
O139        C167   1.272       .  A
O139       Mg141   2.305       .  S
O140       Mg172   2.270       .  S
Mg141       O147   2.130       .  S
Mg141       O155   2.241       .  S
Mg141       O143   2.311       .  S
C142       C2299   1.464       .  S
C142        O180   1.268       .  A
C142        O148   1.273       .  A
O143        C150   1.274       .  A
H144        C157   1.081       .  S
C145        H170   1.082       .  S
C145        O159   1.236       .  S
C145        O160   1.269       .  A
O146        C169   1.269       .  A
O147       Mg161   2.146       .  S
O148       Mg178   2.289       .  S
C149       C2267   1.470       .  S
C149        O162   1.270       .  A
C149        O154   1.275       .  A
C150       C2235   1.471       .  S
C150        O177   1.272       .  A
Mg151       O158   2.125       .  S
Mg151       O159   2.142       .  S
Mg151       O152   2.290       .  S
Mg151       O153   2.295       .  S
Mg151       O180   2.239       .  S
O153        C157   1.270       .  A
O154       Mg161   2.304       .  S
O155        C174   1.269       .  A
O156        C176   1.273       .  A
O156       Mg172   2.291       .  S
O158       Mg172   2.142       .  S
O158        C169   1.235       .  S
O159       Mg178   2.131       .  S
O160       Mg172   2.296       .  S
Mg161       O177   2.265       .  S
O162       Mg178   2.251       .  S
H163        C168   1.082       .  S
O164       Mg172   2.147       .  S
O164        C167   1.237       .  S
H165        C167   1.081       .  S
H166        C169   1.081       .  S
O171       Mg178   2.292       .  S
C174       C2395   1.469       .  S
C174        O179   1.274       .  A
O175        C176   1.271       .  A
C176       C2363   1.465       .  S
C181        C182   1.423       .  A
C181        C186   1.414   1_556  A
C181       C2379   1.495       .  S
C182        C183   1.408   1_556  A
C182       C2347   1.497       .  S
C183        C184   1.404       .  A
C183        H188   1.084       .  S
C184        C185   1.420       .  A
C184       C2200   1.496       .  S
C185        C186   1.413       .  A
C185       C2184   1.494       .  S
C186        H187   1.084       .  S
C189        C190   1.425       .  A
C189        C194   1.415       .  A
C189       C2251   1.511   1_545  S
C190        C191   1.410       .  A
C190       C2219   1.492   1_545  S
C191        C192   1.412       .  A
C191        H196   1.083       .  S
C192        C193   1.428       .  A
C192       C2168   1.510       .  S
C193        C194   1.410       .  A
C193       C2155   1.493       .  S
C194        H195   1.083       .  S
C197        C198   1.429       .  A
C197        C202   1.413       .  A
C197       C2283   1.500   1_455  S
C198        C199   1.415       .  A
C198       C2315   1.509   1_455  S
C199        C200   1.410       .  A
C199        H204   1.080       .  S
C200        C201   1.420       .  A
C200       C2123   1.503       .  S
C201        C202   1.408       .  A
C201       C2136   1.495       .  S
C202        H203   1.084       .  S
C205       C2523   1.488       .  S
C205        N206   1.376       .  A
C205        N210   1.356       .  A
N206        C207   1.375       .  A
C207       C2088   1.484       .  S
C207        N208   1.354       .  A
N208        C209   1.343       .  A
C209       C2107   1.456       .  S
C209        N210   1.347       .  A
C211       C2728   1.495       .  S
C211        N212   1.373       .  A
C211        N216   1.358       .  A
N212        C213   1.374       .  A
C213       C2056   1.485       .  S
C213        N214   1.358       .  A
N214        C215   1.352       .  A
C215       C2072   1.473       .  S
C215        N216   1.354       .  A
C217       C2507   1.477       .  S
C217        N218   1.355       .  A
C217        N222   1.371       .  A
N218        C219   1.353       .  A
C219       C2043   1.470       .  S
C219        N220   1.354       .  A
N220        C221   1.359       .  A
C221       C2024   1.484       .  S
C221        N222   1.371       .  A
C223       C2875   1.482       .  S
C223        N224   1.359       .  A
C223        N228   1.374       .  A
N224        C225   1.354       .  A
C225       C2008   1.471       .  S
C225        N226   1.350       .  A
N226        C227   1.355       .  A
C227       C1995   1.490       .  S
C227        N228   1.372       .  A
C229       C2856   1.490       .  S
C229        N230   1.372       .  A
C229        N234   1.355       .  A
N230        C231   1.375       .  A
C231       C2152   1.479       .  S
C231        N232   1.359       .  A
N232        C233   1.352       .  A
C233       C1976   1.472       .  S
C233        N234   1.350       .  A
C235       C2744   1.474       .  S
C235        N236   1.351       .  A
C235        N240   1.371       .  A
N236        C237   1.348       .  A
C237       C1963   1.466       .  S
C237        N238   1.356       .  A
N238        C239   1.361       .  A
C239       C2171   1.489       .  S
C239        N240   1.373       .  A
O241       Mg243   2.150       .  S
O241       Mg249   2.161       .  S
O241        C276   1.238       .  S
C242        H281   1.081       .  S
C242        O255   1.237       .  S
C242        O279   1.271       .  A
Mg243       O272   2.131       .  S
Mg243       O287   2.279       .  S
Mg243       O283   2.284       .  S
Mg243       O254   2.319       .  S
O244       Mg286   2.152       .  S
O244       Mg269   2.143       .  S
O244        C265   1.235       .  S
O245        C276   1.273       .  A
O245       Mg269   2.310       .  S
C246       C2011   1.469       .  S
C246        O248   1.270       .  A
C246        O260   1.273       .  A
O247        C275   1.270       .  A
O247       Mg249   2.306       .  S
O248       Mg280   2.261       .  S
Mg249       O255   2.131       .  S
Mg249       O263   2.268       .  S
Mg249       O251   2.306       .  S
C250       C2040   1.469       .  S
C250        O288   1.270       .  A
C250        O256   1.275       .  A
O251        C258   1.275       .  A
H252        C265   1.082       .  S
C253        H278   1.081       .  S
C253        O267   1.236       .  S
C253        O268   1.269       .  A
O254        C277   1.274       .  A
O255       Mg269   2.135       .  S
O256       Mg286   2.306       .  S
C257       C2104   1.459       .  S
C257        O270   1.268       .  A
C257        O262   1.273       .  A
C258       C2075   1.472       .  S
C258        O285   1.271       .  A
Mg259       O266   2.129       .  S
Mg259       O267   2.140       .  S
Mg259       O260   2.294       .  S
Mg259       O261   2.299       .  S
Mg259       O288   2.255       .  S
O261        C265   1.269       .  A
O262       Mg269   2.286       .  S
O263        C282   1.271       .  A
O264        C284   1.265       .  A
O264       Mg280   2.269       .  S
O266       Mg280   2.135       .  S
O266        C277   1.238       .  S
O267       Mg286   2.113       .  S
O268       Mg280   2.291       .  S
Mg269       O285   2.270       .  S
O270       Mg286   2.230       .  S
H271        C276   1.081       .  S
O272       Mg280   2.152       .  S
O272        C275   1.235       .  S
H273        C275   1.082       .  S
H274        C277   1.081       .  S
O279       Mg286   2.298       .  S
C282       C1960   1.467       .  S
C282        O287   1.271       .  A
O283        C284   1.269       .  A
C284       C1979   1.467       .  S
C289       C2443   1.493       .  S
C289        N290   1.375       .  A
C289        N294   1.354       .  A
N290        C291   1.377       .  A
C291       C1928   1.487       .  S
C291        N292   1.360       .  A
N292        C293   1.350       .  A
C293       C1947   1.468       .  S
C293        N294   1.346       .  A
C295       C2680   1.482       .  S
C295        N296   1.356       .  A
C295        N300   1.372       .  A
N296        C297   1.353       .  A
C297       C1915   1.465       .  S
C297        N298   1.352       .  A
N298        C299   1.355       .  A
C299       C1896   1.484       .  S
C299        N300   1.372       .  A
C301       C2456   1.480       .  S
C301        N302   1.370       .  A
C301        N306   1.357       .  A
N302        C303   1.369       .  A
C303       C1864   1.479       .  S
C303        N304   1.356       .  A
N304        C305   1.355       .  A
C305       C1880   1.471       .  S
C305        N306   1.356       .  A
C307       C1832   1.489       .  S
C307        N308   1.371       .  A
C307        N312   1.359       .  A
N308        C309   1.370       .  A
C309       C2920   1.479       .  S
C309        N310   1.355       .  A
N310        C311   1.353       .  A
C311       C1848   1.471       .  S
C311        N312   1.355       .  A
C313       C2667   1.485       .  S
C313        N314   1.370       .  A
C313        N318   1.355       .  A
N314        C315   1.371       .  A
C315       C2120   1.480       .  S
C315        N316   1.358       .  A
N316        C317   1.351       .  A
C317       C1816   1.466       .  S
C317        N318   1.349       .  A
C319       C2139   1.477       .  S
C319        N320   1.375       .  A
C319        N324   1.363       .  A
N320        C321   1.370       .  A
C321       C2939   1.489       .  S
C321        N322   1.350       .  A
N322        C323   1.345       .  A
C323       C1800   1.469       .  S
C323        N324   1.354       .  A
O325       Mg327   2.130       .  S
O325       Mg333   2.145       .  S
O325        C360   1.234       .  S
C326        H365   1.081       .  S
C326        O339   1.236       .  S
C326        O363   1.270       .  A
Mg327       O356   2.148       .  S
Mg327       O371   2.263       .  S
Mg327       O367   2.238       .  S
Mg327       O338   2.293       .  S
O328       Mg370   2.146       .  S
O328       Mg353   2.124       .  S
O328        C349   1.235       .  S
O329        C360   1.268       .  A
O329       Mg353   2.296       .  S
C330       C1851   1.469       .  S
C330        O332   1.272       .  A
C330        O344   1.275       .  A
O331        C359   1.272       .  A
O331       Mg333   2.310       .  S
O332       Mg364   2.253       .  S
Mg333       O339   2.143       .  S
Mg333       O347   2.271       .  S
Mg333       O335   2.304       .  S
C334       C1883   1.469       .  S
C334        O372   1.272       .  A
C334        O340   1.273       .  A
O335        C342   1.274       .  A
H336        C349   1.081       .  S
C337        H362   1.081       .  S
C337        O351   1.233       .  S
C337        O352   1.267       .  A
O338        C361   1.269       .  A
O339       Mg353   2.152       .  S
O340       Mg370   2.289       .  S
C341       C1944   1.468       .  S
C341        O354   1.270       .  A
C341        O346   1.272       .  A
C342       C1912   1.464       .  S
C342        O369   1.269       .  A
Mg343       O350   2.138       .  S
Mg343       O351   2.160       .  S
Mg343       O344   2.295       .  S
Mg343       O345   2.290       .  S
Mg343       O372   2.261       .  S
O345        C349   1.268       .  A
O346       Mg353   2.284       .  S
O347        C366   1.270       .  A
O348        C368   1.274       .  A
O348       Mg364   2.303       .  S
O350       Mg364   2.162       .  S
O350        C361   1.235       .  S
O351       Mg370   2.137       .  S
O352       Mg364   2.291       .  S
Mg353       O369   2.230       .  S
O354       Mg370   2.253       .  S
H355        C360   1.082       .  S
O356       Mg364   2.138       .  S
O356        C359   1.237       .  S
H357        C359   1.081       .  S
H358        C361   1.081       .  S
O363       Mg370   2.300       .  S
C366       C1819   1.467       .  S
C366        O371   1.269       .  A
O367        C368   1.267       .  A
C368       C1803   1.469       .  S
C373        C374   1.424       .  A
C373        C378   1.410   1_565  A
C373       C1867   1.502       .  S
C374        C375   1.415   1_565  A
C374       C1835   1.499       .  S
C375        C376   1.415       .  A
C375        H380   1.082       .  S
C376        C377   1.426       .  A
C376       C1784   1.507       .  S
C377        C378   1.410       .  A
C377       C1771   1.498       .  S
C378        H379   1.083       .  S
C381       C2779   1.487       .  S
C381        N382   1.354       .  A
C381        N386   1.369       .  A
N382        C383   1.350       .  A
C383       C1752   1.476       .  S
C383        N384   1.358       .  A
N384        C385   1.364       .  A
C385       C1739   1.488       .  S
C385        N386   1.373       .  A
C387       C2696   1.475       .  S
C387        N388   1.357       .  A
C387        N392   1.368       .  A
N388        C389   1.353       .  A
C389       C1723   1.472       .  S
C389        N390   1.354       .  A
N390        C391   1.359       .  A
C391       C1704   1.484       .  S
C391        N392   1.368       .  A
C393       C1787   1.489       .  S
C393        N394   1.376       .  A
C393        N398   1.363       .  A
N394        C395   1.372       .  A
C395       C3131   1.496       .  S
C395        N396   1.355       .  A
N396        C397   1.349       .  A
C397       C1691   1.477       .  S
C397        N398   1.354       .  A
C399       C1768   1.485       .  S
C399        N400   1.359       .  A
C399        N404   1.372       .  A
N400        C401   1.352       .  A
C401       C1672   1.470       .  S
C401        N402   1.352       .  A
N402        C403   1.355       .  A
C403       C2760   1.481       .  S
C403        N404   1.370       .  A
C405       C3112   1.474       .  S
C405        N406   1.353       .  A
C405        N410   1.369       .  A
N406        C407   1.351       .  A
C407       C1659   1.463       .  S
C407        N408   1.353       .  A
N408        C409   1.356       .  A
C409       C1643   1.474       .  S
C409        N410   1.370       .  A
C411       C2715   1.487       .  S
C411        N412   1.351       .  A
C411        N416   1.371       .  A
N412        C413   1.345       .  A
C413       C1624   1.466       .  S
C413        N414   1.352       .  A
N414        C415   1.362       .  A
C415       C1611   1.485       .  S
C415        N416   1.376       .  A
O417       Mg419   2.125       .  S
O417       Mg425   2.136       .  S
O417        C452   1.234       .  S
C418        H457   1.082       .  S
C418        O431   1.240       .  S
C418        O455   1.276       .  A
Mg419       O448   2.152       .  S
Mg419       O463   2.300       .  S
Mg419       O459   2.251       .  S
Mg419       O430   2.288       .  S
O420       Mg462   2.125       .  S
O420       Mg445   2.133       .  S
O420        C441   1.235       .  S
O421        C452   1.268       .  A
O421       Mg445   2.297       .  S
C422       C1627   1.467       .  S
C422        O424   1.268       .  A
C422        O436   1.275       .  A
O423        C451   1.271       .  A
O423       Mg425   2.299       .  S
O424       Mg456   2.244       .  S
Mg425       O431   2.168       .  S
Mg425       O439   2.277       .  S
Mg425       O427   2.294       .  S
C426       C1720   1.472       .  S
C426        O464   1.271       .  A
C426        O432   1.274       .  A
O427        C434   1.273       .  A
H428        C441   1.081       .  S
C429        H454   1.081       .  S
C429        O443   1.239       .  S
C429        O444   1.273       .  A
O430        C453   1.268       .  A
O431       Mg445   2.153       .  S
O432       Mg462   2.312       .  S
C433       C1755   1.473       .  S
C433        O446   1.269       .  A
C433        O438   1.275       .  A
C434       C1675   1.465       .  S
C434        O461   1.270       .  A
Mg435       O442   2.119       .  S
Mg435       O443   2.150       .  S
Mg435       O436   2.298       .  S
Mg435       O437   2.302       .  S
Mg435       O464   2.258       .  S
O437        C441   1.270       .  A
O438       Mg445   2.320       .  S
O439        C458   1.273       .  A
O440        C460   1.272       .  A
O440       Mg456   2.289       .  S
O442       Mg456   2.138       .  S
O442        C453   1.235       .  S
O443       Mg462   2.139       .  S
O444       Mg456   2.303       .  S
Mg445       O461   2.252       .  S
O446       Mg462   2.251       .  S
H447        C452   1.082       .  S
O448       Mg456   2.132       .  S
O448        C451   1.237       .  S
H449        C451   1.080       .  S
H450        C453   1.082       .  S
O455       Mg462   2.322       .  S
C458       C1688   1.473       .  S
C458        O463   1.274       .  A
O459        C460   1.271       .  A
C460       C1656   1.465       .  S
C465        C466   1.424       .  A
C465        C470   1.408       .  A
C465       C1992   1.498   1_455  S
C466        C467   1.412       .  A
C466       C2027   1.500   1_455  S
C467        C468   1.415       .  A
C467        H472   1.080       .  S
C468        C469   1.426       .  A
C468       C1608   1.511       .  S
C469        C470   1.409       .  A
C469       C1640   1.490       .  S
C470        H471   1.085       .  S
C473        C474   1.425       .  A
C473        C478   1.417       .  A
C473       C1736   1.503       .  S
C474        C475   1.406       .  A
C474       C1707   1.498       .  S
C475        C476   1.409   1_556  A
C475        H480   1.083       .  S
C476        C477   1.422       .  A
C476       C1592   1.496       .  S
C477        C478   1.411   1_554  A
C477       C1576   1.495       .  S
C478        H479   1.083       .  S
C481        C482   1.422       .  A
C481        C486   1.412       .  A
C481       C1560   1.493       .  S
C482        C483   1.407       .  A
C482       C1544   1.498       .  S
C483        C484   1.405   1_545  A
C483        H488   1.083       .  S
C484        C485   1.420       .  A
C484       C1528   1.494       .  S
C485        C486   1.413   1_565  A
C485       C1512   1.493       .  S
C486        H487   1.084       .  S
C489       C3099   1.474       .  S
C489        N490   1.358       .  A
C489        N494   1.373       .  A
N490        C491   1.348       .  A
C491       C1496   1.463       .  S
C491        N492   1.346       .  A
N492        C493   1.354       .  A
C493       C1595   1.486       .  S
C493        N494   1.371       .  A
C495       C3019   1.505       .  S
C495        N496   1.352       .  A
C495        N500   1.378       .  A
N496        C497   1.347       .  A
C497       C1480   1.467       .  S
C497        N498   1.353       .  A
N498        C499   1.360       .  A
C499       C1579   1.489       .  S
C499        N500   1.382       .  A
C501       C1563   1.487       .  S
C501        N502   1.370       .  A
C501        N506   1.356       .  A
N502        C503   1.371       .  A
C503       C3035   1.480       .  S
C503        N504   1.358       .  A
N504        C505   1.352       .  A
C505       C1464   1.469       .  S
C505        N506   1.351       .  A
C507       C1547   1.470       .  S
C507        N508   1.366       .  A
C507        N512   1.356       .  A
N508        C509   1.365       .  A
C509       C3147   1.474       .  S
C509        N510   1.356       .  A
N510        C511   1.355       .  A
C511       C1448   1.468       .  S
C511        N512   1.354       .  A
C513       C3163   1.496       .  S
C513        N514   1.356       .  A
C513        N518   1.381       .  A
N514        C515   1.349       .  A
C515       C1432   1.465       .  S
C515        N516   1.350       .  A
N516        C517   1.355       .  A
C517       C1416   1.495       .  S
C517        N518   1.380       .  A
C519       C3083   1.488       .  S
C519        N520   1.373       .  A
C519        N524   1.355       .  A
N520        C521   1.374       .  A
C521       C1384   1.482       .  S
C521        N522   1.357       .  A
N522        C523   1.349       .  A
C523       C1400   1.466       .  S
C523        N524   1.348       .  A
O525       Mg527   2.133       .  S
O525       Mg533   2.138       .  S
O525        C560   1.237       .  S
C526        H565   1.081       .  S
C526        O539   1.236       .  S
C526        O563   1.270       .  A
Mg527       O556   2.144       .  S
Mg527       O571   2.292       .  S
Mg527       O567   2.260       .  S
Mg527       O538   2.305       .  S
O528       Mg570   2.148       .  S
O528       Mg553   2.121       .  S
O528        C549   1.236       .  S
O529        C560   1.272       .  A
O529       Mg553   2.305       .  S
C530       C1467   1.468       .  S
C530        O532   1.272       .  A
C530        O544   1.273       .  A
O531        C559   1.272       .  A
O531       Mg533   2.311       .  S
O532       Mg564   2.274       .  S
Mg533       O539   2.116       .  S
Mg533       O547   2.250       .  S
Mg533       O535   2.299       .  S
C534       C1451   1.469       .  S
C534        O572   1.271       .  A
C534        O540   1.273       .  A
O535        C542   1.274       .  A
H536        C549   1.081       .  S
C537        H562   1.081       .  S
C537        O551   1.235       .  S
C537        O552   1.269       .  A
O538        C561   1.272       .  A
O539       Mg553   2.133       .  S
O540       Mg570   2.280       .  S
C541       C1435   1.459       .  S
C541        O554   1.270       .  A
C541        O546   1.271       .  A
C542       C1403   1.463       .  S
C542        O569   1.267       .  A
Mg543       O550   2.139       .  S
Mg543       O551   2.147       .  S
Mg543       O544   2.281       .  S
Mg543       O545   2.290       .  S
Mg543       O572   2.272       .  S
O545        C549   1.269       .  A
O546       Mg553   2.274       .  S
O547        C566   1.268       .  A
O548        C568   1.273       .  A
O548       Mg564   2.290       .  S
O550       Mg564   2.147       .  S
O550        C561   1.237       .  S
O551       Mg570   2.122       .  S
O552       Mg564   2.295       .  S
Mg553       O569   2.246       .  S
O554       Mg570   2.257       .  S
H555        C560   1.081       .  S
O556       Mg564   2.144       .  S
O556        C559   1.237       .  S
H557        C559   1.081       .  S
H558        C561   1.081       .  S
O563       Mg570   2.295       .  S
C566       C1499   1.460       .  S
C566        O571   1.273       .  A
O567        C568   1.269       .  A
C568       C1483   1.466       .  S
C573        C574   1.431       .  A
C573        C578   1.410       .  A
C573       C1419   1.507       .  S
C574        C575   1.418       .  A
C574       C1387   1.501       .  S
C575        C576   1.407       .  A
C575        H580   1.083       .  S
C576        C577   1.422       .  A
C576       C1371   1.508   1_455  S
C577        C578   1.414       .  A
C577       C1352   1.492   1_455  S
C578        H579   1.084       .  S
C581        C582   1.417       .  A
C581        C586   1.411       .  A
C581       C2059   1.494       .  S
C582        C583   1.402       .  A
C582       C2091   1.493       .  S
C583        C584   1.409   1_556  A
C583        H588   1.082       .  S
C584        C585   1.429       .  A
C584       C1320   1.501       .  S
C585        C586   1.416   1_554  A
C585       C1339   1.502       .  S
C586        H587   1.083       .  S
C589       C2587   1.496       .  S
C589        N590   1.353       .  A
C589        N594   1.375       .  A
N590        C591   1.348       .  A
C591       C1304   1.472       .  S
C591        N592   1.353       .  A
N592        C593   1.362       .  A
C593       C1368   1.492       .  S
C593        N594   1.379       .  A
C595       C2888   1.479       .  S
C595        N596   1.361       .  A
C595        N600   1.373       .  A
N596        C597   1.354       .  A
C597       C1291   1.467       .  S
C597        N598   1.347       .  A
N598        C599   1.352       .  A
C599       C1355   1.485       .  S
C599        N600   1.370       .  A
C601       C3003   1.494       .  S
C601        N602   1.357       .  A
C601        N606   1.376       .  A
N602        C603   1.349       .  A
C603       C1275   1.468       .  S
C603        N604   1.347       .  A
N604        C605   1.357       .  A
C605       C1336   1.486       .  S
C605        N606   1.376       .  A
C607       C2568   1.478       .  S
C607        N608   1.353       .  A
C607        N612   1.370       .  A
N608        C609   1.347       .  A
C609       C1259   1.463       .  S
C609        N610   1.350       .  A
N610        C611   1.358       .  A
C611       C1323   1.475       .  S
C611        N612   1.373       .  A
C613       C2987   1.485       .  S
C613        N614   1.354       .  A
C613        N618   1.372       .  A
N614        C615   1.353       .  A
C615       C1240   1.466       .  S
C615        N616   1.352       .  A
N616        C617   1.357       .  A
C617       C1224   1.482       .  S
C617        N618   1.373       .  A
C619       C2904   1.502       .  S
C619        N620   1.355       .  A
C619        N624   1.378       .  A
N620        C621   1.347       .  A
C621       C1208   1.468       .  S
C621        N622   1.351       .  A
N622        C623   1.360       .  A
C623       C1195   1.492       .  S
C623        N624   1.381       .  A
O625       Mg627   2.136       .  S
O625       Mg633   2.150       .  S
O625        C660   1.235       .  S
C626        H665   1.081       .  S
C626        O639   1.236       .  S
C626        O663   1.270       .  A
Mg627       O656   2.149       .  S
Mg627       O671   2.290       .  S
Mg627       O667   2.263       .  S
Mg627       O638   2.296       .  S
O628       Mg670   2.142       .  S
O628       Mg653   2.126       .  S
O628        C649   1.236       .  S
O629        C660   1.269       .  A
O629       Mg653   2.299       .  S
C630       C1272   1.465       .  S
C630        O632   1.270       .  A
C630        O644   1.275       .  A
O631        C659   1.270       .  A
O631       Mg633   2.300       .  S
O632       Mg664   2.257       .  S
Mg633       O639   2.141       .  S
Mg633       O647   2.263       .  S
Mg633       O635   2.308       .  S
C634       C1243   1.466       .  S
C634        O672   1.272       .  A
C634        O640   1.269       .  A
O635        C642   1.275       .  A
H636        C649   1.081       .  S
C637        H662   1.082       .  S
C637        O651   1.235       .  S
C637        O652   1.269       .  A
O638        C661   1.270       .  A
O639       Mg653   2.146       .  S
O640       Mg670   2.263       .  S
C641       C1211   1.469       .  S
C641        O654   1.268       .  A
C641        O646   1.271       .  A
C642       C1288   1.461       .  S
C642        O669   1.266       .  A
Mg643       O650   2.134       .  S
Mg643       O651   2.149       .  S
Mg643       O644   2.299       .  S
Mg643       O645   2.299       .  S
Mg643       O672   2.271       .  S
O645        C649   1.270       .  A
O646       Mg653   2.286       .  S
O647        C666   1.272       .  A
O648        C668   1.272       .  A
O648       Mg664   2.278       .  S
O650       Mg664   2.149       .  S
O650        C661   1.236       .  S
O651       Mg670   2.129       .  S
O652       Mg664   2.295       .  S
Mg653       O669   2.228       .  S
O654       Mg670   2.257       .  S
H655        C660   1.081       .  S
O656       Mg664   2.136       .  S
O656        C659   1.236       .  S
H657        C659   1.081       .  S
H658        C661   1.081       .  S
O663       Mg670   2.300       .  S
C666       C1307   1.468       .  S
C666        O671   1.274       .  A
O667        C668   1.271       .  A
C668       C1256   1.467       .  S
C673        C674   1.424       .  A
C673        C678   1.412       .  A
C673       C1227   1.500       .  S
C674        C675   1.413       .  A
C674       C1192   1.501       .  S
C675        C676   1.416   1_545  A
C675        H680   1.082       .  S
C676        C677   1.426       .  A
C676       C1163   1.505       .  S
C677        C678   1.409   1_565  A
C677       C1176   1.500       .  S
C678        H679   1.084       .  S
C681       C2824   1.473       .  S
C681        N682   1.369       .  A
C681        N686   1.351       .  A
N682        C683   1.372       .  A
C683       C1160   1.486       .  S
C683        N684   1.362       .  A
N684        C685   1.354       .  A
C685       C1147   1.467       .  S
C685        N686   1.347       .  A
C687       C2619   1.493       .  S
C687        N688   1.371       .  A
C687        N692   1.350       .  A
N688        C689   1.378       .  A
C689       C1179   1.486       .  S
C689        N690   1.365       .  A
N690        C691   1.356       .  A
C691       C1128   1.470       .  S
C691        N692   1.344       .  A
C693       C1096   1.480       .  S
C693        N694   1.371       .  A
C693        N698   1.362       .  A
N694        C695   1.368       .  A
C695       C2843   1.487       .  S
C695        N696   1.355       .  A
N696        C697   1.351       .  A
C697       C1112   1.475       .  S
C697        N698   1.356       .  A
C699       C1064   1.479       .  S
C699        N700   1.375       .  A
C699        N704   1.359       .  A
N700        C701   1.372       .  A
C701       C2539   1.483       .  S
C701        N702   1.352       .  A
N702        C703   1.348       .  A
C703       C1080   1.464       .  S
C703        N704   1.351       .  A
C705       C2603   1.476       .  S
C705        N706   1.369       .  A
C705        N710   1.357       .  A
N706        C707   1.369       .  A
C707       C2187   1.484       .  S
C707        N708   1.358       .  A
N708        C709   1.352       .  A
C709       C1048   1.470       .  S
C709        N710   1.353       .  A
C711       C2555   1.483       .  S
C711        N712   1.369       .  A
C711        N716   1.352       .  A
N712        C713   1.373       .  A
C713       C2203   1.478       .  S
C713        N714   1.360       .  A
N714        C715   1.352       .  A
C715       C1032   1.466       .  S
C715        N716   1.348       .  A
O717       Mg719   2.131       .  S
O717       Mg725   2.140       .  S
O717        C752   1.236       .  S
C718        H757   1.081       .  S
C718        O731   1.239       .  S
C718        O755   1.274       .  A
Mg719       O748   2.151       .  S
Mg719       O763   2.322       .  S
Mg719       O759   2.269       .  S
Mg719       O730   2.301       .  S
O720       Mg762   2.139       .  S
O720       Mg745   2.123       .  S
O720        C741   1.235       .  S
O721        C752   1.269       .  A
O721       Mg745   2.298       .  S
C722       C1131   1.466       .  S
C722        O724   1.269       .  A
C722        O736   1.275       .  A
O723        C751   1.270       .  A
O723       Mg725   2.303       .  S
O724       Mg756   2.245       .  S
Mg725       O731   2.151       .  S
Mg725       O739   2.252       .  S
Mg725       O727   2.305       .  S
C726       C1051   1.472       .  S
C726        O764   1.273       .  A
C726        O732   1.275       .  A
O727        C734   1.273       .  A
H728        C741   1.082       .  S
C729        H754   1.081       .  S
C729        O743   1.237       .  S
C729        O744   1.270       .  A
O730        C753   1.270       .  A
O731       Mg745   2.150       .  S
O732       Mg762   2.306       .  S
C733       C1035   1.463       .  S
C733        O746   1.268       .  A
C733        O738   1.271       .  A
C734       C1083   1.464       .  S
C734        O761   1.267       .  A
Mg735       O742   2.135       .  S
Mg735       O743   2.145       .  S
Mg735       O736   2.302       .  S
Mg735       O737   2.293       .  S
Mg735       O764   2.267       .  S
O737        C741   1.268       .  A
O738       Mg745   2.281       .  S
O739        C758   1.271       .  A
O740        C760   1.270       .  A
O740       Mg756   2.269       .  S
O742       Mg756   2.143       .  S
O742        C753   1.236       .  S
O743       Mg762   2.116       .  S
O744       Mg756   2.293       .  S
Mg745       O761   2.229       .  S
O746       Mg762   2.241       .  S
H747        C752   1.081       .  S
O748       Mg756   2.145       .  S
O748        C751   1.235       .  S
H749        C751   1.082       .  S
H750        C753   1.081       .  S
O755       Mg762   2.310       .  S
C758       C1115   1.473       .  S
C758        O763   1.277       .  A
O759        C760   1.272       .  A
C760       C1144   1.463       .  S
C765        C766   1.422       .  A
C765        C770   1.417   1_655  A
C765       C1099   1.497       .  S
C766        C767   1.404   1_655  A
C766       C1067   1.498       .  S
C767        C768   1.408       .  A
C767        H772   1.084       .  S
C768        C769   1.426       .  A
C768       C1016   1.498       .  S
C769        C770   1.417       .  A
C769       C1000   1.504       .  S
C770        H771   1.083       .  S
C773       C1531   1.475       .  S
C773        N774   1.357       .  A
C773        N778   1.373       .  A
N774        C775   1.350       .  A
C775        C987   1.463       .  S
C775        N776   1.347       .  A
N776        C777   1.353       .  A
C777       C2971   1.486       .  S
C777        N778   1.371       .  A
C779       C2635   1.478       .  S
C779        N780   1.369       .  A
C779        N784   1.356       .  A
N780        C781   1.371       .  A
C781       C1515   1.487       .  S
C781        N782   1.359       .  A
N782        C783   1.354       .  A
C783        C971   1.469       .  S
C783        N784   1.350       .  A
C785       C3051   1.485       .  S
C785        N786   1.379       .  A
C785        N790   1.357       .  A
N786        C787   1.377       .  A
C787        C936   1.494       .  S
C787        N788   1.354       .  A
N788        C789   1.346       .  A
C789        C952   1.463       .  S
C789        N790   1.348       .  A
C791       C3064   1.488       .  S
C791        N792   1.369       .  A
C791        N796   1.351       .  A
N792        C793   1.375       .  A
C793       C1019   1.479       .  S
C793        N794   1.363       .  A
N794        C795   1.353       .  A
C795        C920   1.467       .  S
C795        N796   1.344       .  A
C797       C1003   1.497       .  S
C797        N798   1.356       .  A
C797        N802   1.375       .  A
N798        C799   1.350       .  A
C799        C904   1.471       .  S
C799        N800   1.351       .  A
N800        C801   1.359       .  A
C801       C2955   1.489       .  S
C801        N802   1.378       .  A
C803       C2651   1.492       .  S
C803        N804   1.353       .  A
C803        N808   1.373       .  A
N804        C805   1.346       .  A
C805        C891   1.464       .  S
C805        N806   1.352       .  A
N806        C807   1.361       .  A
C807        C875   1.485       .  S
C807        N808   1.378       .  A
O809       Mg811   2.139       .  S
O809       Mg817   2.144       .  S
O809        C844   1.237       .  S
C810        H849   1.081       .  S
C810        O823   1.236       .  S
C810        O847   1.269       .  A
Mg811       O840   2.146       .  S
Mg811       O855   2.286       .  S
Mg811       O851   2.280       .  S
Mg811       O822   2.298       .  S
O812       Mg854   2.152       .  S
O812       Mg837   2.124       .  S
O812        C833   1.236       .  S
O813        C844   1.271       .  A
O813       Mg837   2.303       .  S
C814        C923   1.465       .  S
C814        O816   1.269       .  A
C814        O828   1.272       .  A
O815        C843   1.270       .  A
O815       Mg817   2.295       .  S
O816       Mg848   2.250       .  S
Mg817       O823   2.118       .  S
Mg817       O831   2.236       .  S
Mg817       O819   2.278       .  S
C818        C955   1.461       .  S
C818        O856   1.268       .  A
C818        O824   1.272       .  A
O819        C826   1.271       .  A
H820        C833   1.081       .  S
C821        H846   1.082       .  S
C821        O835   1.236       .  S
C821        O836   1.270       .  A
O822        C845   1.271       .  A
O823       Mg837   2.136       .  S
O824       Mg854   2.276       .  S
C825        C888   1.466       .  S
C825        O838   1.270       .  A
C825        O830   1.273       .  A
C826        C968   1.465       .  S
C826        O853   1.270       .  A
Mg827       O834   2.127       .  S
Mg827       O835   2.148       .  S
Mg827       O828   2.281       .  S
Mg827       O829   2.296       .  S
Mg827       O856   2.250       .  S
O829        C833   1.270       .  A
O830       Mg837   2.282       .  S
O831        C850   1.267       .  A
O832        C852   1.272       .  A
O832       Mg848   2.280       .  S
O834       Mg848   2.144       .  S
O834        C845   1.237       .  S
O835       Mg854   2.131       .  S
O836       Mg848   2.297       .  S
Mg837       O853   2.265       .  S
O838       Mg854   2.261       .  S
H839        C844   1.082       .  S
O840       Mg848   2.118       .  S
O840        C843   1.237       .  S
H841        C843   1.081       .  S
H842        C845   1.081       .  S
O847       Mg854   2.293       .  S
C850        C984   1.459       .  S
C850        O855   1.273       .  A
O851        C852   1.273       .  A
C852        C907   1.468       .  S
C857        C858   1.424       .  A
C857        C862   1.410       .  A
C857       C1899   1.498       .  S
C858        C859   1.413       .  A
C858       C1931   1.502       .  S
C859        C860   1.415   1_556  A
C859        H864   1.081       .  S
C860        C861   1.426       .  A
C860        C872   1.507       .  S
C861        C862   1.408   1_554  A
C861        C939   1.495       .  S
C862        H863   1.084       .  S
C865        C870   1.383       .  A
C865        C866   1.407       .  A
C865        S871   1.720       .  A
C866        C867   1.410       .  A
C866        H877   1.083       .  S
C867        C876   1.375       .  A
C867        C868   1.385       .  A
C868        C869   1.406       .  A
C868        S874   1.720       .  A
C869        C870   1.409       .  A
C869        H878   1.083       .  S
C870        C873   1.373       .  A
S871        C872   1.730       .  A
C872        C873   1.398       .  A
C873        H879   1.083       .  S
S874        C875   1.724       .  A
C875        C876   1.394       .  A
C876        H880   1.083       .  S
C881        C886   1.387       .  A
C881        C882   1.403       .  A
C881        S887   1.709       .  A
C882        C883   1.404       .  A
C882        H893   1.083       .  S
C883        C892   1.372       .  A
C883        C884   1.388       .  A
C884        C885   1.395       .  A
C884        S890   1.697       .  A
C885        C886   1.396       .  A
C885        H894   1.083       .  S
C886        C889   1.362       .  A
S887        C888   1.723       .  A
C888        C889   1.383       .  A
C889        H895   1.084       .  S
S890        C891   1.720       .  A
C891        C892   1.386       .  A
C892        H896   1.083       .  S
C897        C902   1.387       .  A
C897        C898   1.404       .  A
C897        S903   1.710       .  A
C898        C899   1.405       .  A
C898        H909   1.083       .  S
C899        C908   1.373       .  A
C899        C900   1.388       .  A
C900        C901   1.397       .  A
C900        S906   1.700       .  A
C901        C902   1.398       .  A
C901        H910   1.083       .  S
C902        C905   1.365       .  A
S903        C904   1.725       .  A
C904        C905   1.385       .  A
C905        H911   1.083       .  S
S906        C907   1.721       .  A
C907        C908   1.387       .  A
C908        H912   1.083       .  S
C913        C918   1.388       .  A
C913        C914   1.395       .  A
C913        S919   1.695       .  A
C914        C915   1.396       .  A
C914        H925   1.083       .  S
C915        C924   1.363       .  A
C915        C916   1.387       .  A
C916        C917   1.402       .  A
C916        S922   1.707       .  A
C917        C918   1.403       .  A
C917        H926   1.083       .  S
C918        C921   1.372       .  A
S919        C920   1.723       .  A
C920        C921   1.386       .  A
C921        H927   1.083       .  S
S922        C923   1.723       .  A
C923        C924   1.383       .  A
C924        H928   1.084       .  S
C929        C934   1.383       .  A
C929        C930   1.411       .  A
C929        S935   1.730       .  A
C930        C931   1.415       .  A
C930        H941   1.082       .  S
C931        C940   1.378       .  A
C931        C932   1.385       .  A
C932        C933   1.402       .  A
C932        S938   1.716       .  A
C933        C934   1.406       .  A
C933        H942   1.083       .  S
C934        C937   1.368       .  A
S935        C936   1.729       .  A
C936        C937   1.395       .  A
C937        H943   1.083       .  S
S938        C939   1.724       .  A
C939        C940   1.398       .  A
C940        H944   1.083       .  S
C945        C950   1.388       .  A
C945        C946   1.393       .  A
C945        S951   1.697       .  A
C946        C947   1.395       .  A
C946        H957   1.083       .  S
C947        C956   1.360       .  A
C947        C948   1.387       .  A
C948        C949   1.401       .  A
C948        S954   1.707       .  A
C949        C950   1.403       .  A
C949        H958   1.083       .  S
C950        C953   1.368       .  A
S951        C952   1.719       .  A
C952        C953   1.386       .  A
C953        H959   1.083       .  S
S954        C955   1.723       .  A
C955        C956   1.381       .  A
C956        H960   1.084       .  S
C961        C966   1.388       .  A
C961        C962   1.397       .  A
C961        S967   1.699       .  A
C962        C963   1.397       .  A
C962        H973   1.083       .  S
C963        C972   1.366       .  A
C963        C964   1.387       .  A
C964        C965   1.402       .  A
C964        S970   1.706       .  A
C965        C966   1.402       .  A
C965        H974   1.083       .  S
C966        C969   1.370       .  A
S967        C968   1.721       .  A
C968        C969   1.386       .  A
C969        H975   1.083       .  S
S970        C971   1.725       .  A
C971        C972   1.383       .  A
C972        H976   1.083       .  S
C977        C982   1.387       .  A
C977        C978   1.400       .  A
C977        S983   1.705       .  A
C978        C979   1.401       .  A
C978        H989   1.083       .  S
C979        C988   1.368       .  A
C979        C980   1.388       .  A
C980        C981   1.394       .  A
C980        S986   1.697       .  A
C981        C982   1.395       .  A
C981        H990   1.083       .  S
C982        C985   1.361       .  A
S983        C984   1.723       .  A
C984        C985   1.380       .  A
C985        H991   1.083       .  S
S986        C987   1.720       .  A
C987        C988   1.385       .  A
C988        H992   1.083       .  S
C993        C998   1.384       .  A
C993        C994   1.402       .  A
C993        S999   1.712       .  A
C994        C995   1.405       .  A
C994       H1005   1.083       .  S
C995       C1004   1.369       .  A
C995        C996   1.384       .  A
C996        C997   1.413       .  A
C996       S1002   1.730       .  A
C997        C998   1.416       .  A
C997       H1006   1.083       .  S
C998       C1001   1.382       .  A
S999       C1000   1.727       .  A
C1000      C1001   1.400       .  A
C1001      H1007   1.083       .  S
S1002      C1003   1.731       .  A
C1003      C1004   1.394       .  A
C1004      H1008   1.083       .  S
C1009      C1014   1.384       .  A
C1009      C1010   1.406       .  A
C1009      S1015   1.719       .  A
C1010      C1011   1.409       .  A
C1010      H1021   1.083       .  S
C1011      C1020   1.374       .  A
C1011      C1012   1.386       .  A
C1012      C1013   1.403       .  A
C1012      S1018   1.716       .  A
C1013      C1014   1.406       .  A
C1013      H1022   1.083       .  S
C1014      C1017   1.370       .  A
S1015      C1016   1.729       .  A
C1016      C1017   1.394       .  A
C1017      H1023   1.083       .  S
S1018      C1019   1.723       .  A
C1019      C1020   1.391       .  A
C1020      H1024   1.083       .  S
C1025      C1030   1.387       .  A
C1025      C1026   1.399       .  A
C1025      S1031   1.708       .  A
C1026      C1027   1.401       .  A
C1026      H1037   1.083       .  S
C1027      C1036   1.366       .  A
C1027      C1028   1.388       .  A
C1028      C1029   1.395       .  A
C1028      S1034   1.701       .  A
C1029      C1030   1.398       .  A
C1029      H1038   1.083       .  S
C1030      C1033   1.361       .  A
S1031      C1032   1.721       .  A
C1032      C1033   1.385       .  A
C1033      H1039   1.084       .  S
S1034      C1035   1.721       .  A
C1035      C1036   1.385       .  A
C1036      H1040   1.083       .  S
C1041      C1046   1.387       .  A
C1041      C1042   1.400       .  A
C1041      S1047   1.706       .  A
C1042      C1043   1.401       .  A
C1042      H1053   1.083       .  S
C1043      C1052   1.369       .  A
C1043      C1044   1.387       .  A
C1044      C1045   1.401       .  A
C1044      S1050   1.706       .  A
C1045      C1046   1.402       .  A
C1045      H1054   1.083       .  S
C1046      C1049   1.369       .  A
S1047      C1048   1.722       .  A
C1048      C1049   1.387       .  A
C1049      H1055   1.083       .  S
S1050      C1051   1.724       .  A
C1051      C1052   1.386       .  A
C1052      H1056   1.083       .  S
C1057      C1062   1.385       .  A
C1057      C1058   1.404       .  A
C1057      S1063   1.717       .  A
C1058      C1059   1.407       .  A
C1058      H1069   1.083       .  S
C1059      C1068   1.371       .  A
C1059      C1060   1.385       .  A
C1060      C1061   1.407       .  A
C1060      S1066   1.720       .  A
C1061      C1062   1.410       .  A
C1061      H1070   1.083       .  S
C1062      C1065   1.374       .  A
S1063      C1064   1.723       .  A
C1064      C1065   1.392       .  A
C1065      H1071   1.083       .  S
S1066      C1067   1.729       .  A
C1067      C1068   1.393       .  A
C1068      H1072   1.083       .  S
C1073      C1078   1.387       .  A
C1073      C1074   1.403       .  A
C1073      S1079   1.711       .  A
C1074      C1075   1.405       .  A
C1074      H1085   1.083       .  S
C1075      C1084   1.371       .  A
C1075      C1076   1.388       .  A
C1076      C1077   1.393       .  A
C1076      S1082   1.697       .  A
C1077      C1078   1.395       .  A
C1077      H1086   1.083       .  S
C1078      C1081   1.359       .  A
S1079      C1080   1.724       .  A
C1080      C1081   1.382       .  A
C1081      H1087   1.084       .  S
S1082      C1083   1.719       .  A
C1083      C1084   1.387       .  A
C1084      H1088   1.083       .  S
C1089      C1094   1.386       .  A
C1089      C1090   1.408       .  A
C1089      S1095   1.718       .  A
C1090      C1091   1.410       .  A
C1090      H1101   1.083       .  S
C1091      C1100   1.377       .  A
C1091      C1092   1.385       .  A
C1092      C1093   1.403       .  A
C1092      S1098   1.710       .  A
C1093      C1094   1.405       .  A
C1093      H1102   1.083       .  S
C1094      C1097   1.373       .  A
S1095      C1096   1.725       .  A
C1096      C1097   1.389       .  A
C1097      H1103   1.083       .  S
S1098      C1099   1.727       .  A
C1099      C1100   1.395       .  A
C1100      H1104   1.083       .  S
C1105      C1110   1.386       .  A
C1105      C1106   1.402       .  A
C1105      S1111   1.712       .  A
C1106      C1107   1.405       .  A
C1106      H1117   1.083       .  S
C1107      C1116   1.370       .  A
C1107      C1108   1.387       .  A
C1108      C1109   1.400       .  A
C1108      S1114   1.708       .  A
C1109      C1110   1.402       .  A
C1109      H1118   1.083       .  S
C1110      C1113   1.367       .  A
S1111      C1112   1.724       .  A
C1112      C1113   1.388       .  A
C1113      H1119   1.083       .  S
S1114      C1115   1.722       .  A
C1115      C1116   1.389       .  A
C1116      H1120   1.083       .  S
C1121      C1126   1.388       .  A
C1121      C1122   1.398       .  A
C1121      S1127   1.695       .  A
C1122      C1123   1.398       .  A
C1122      H1133   1.083       .  S
C1123      C1132   1.368       .  A
C1123      C1124   1.388       .  A
C1124      C1125   1.402       .  A
C1124      S1130   1.703       .  A
C1125      C1126   1.401       .  A
C1125      H1134   1.083       .  S
C1126      C1129   1.374       .  A
S1127      C1128   1.725       .  A
C1128      C1129   1.385       .  A
C1129      H1135   1.083       .  S
S1130      C1131   1.723       .  A
C1131      C1132   1.384       .  A
C1132      H1136   1.083       .  S
C1137      C1142   1.388       .  A
C1137      C1138   1.400       .  A
C1137      S1143   1.701       .  A
C1138      C1139   1.400       .  A
C1138      H1149   1.083       .  S
C1139      C1148   1.370       .  A
C1139      C1140   1.388       .  A
C1140      C1141   1.399       .  A
C1140      S1146   1.700       .  A
C1141      C1142   1.398       .  A
C1141      H1150   1.083       .  S
C1142      C1145   1.368       .  A
S1143      C1144   1.723       .  A
C1144      C1145   1.383       .  A
C1145      H1151   1.083       .  S
S1146      C1147   1.723       .  A
C1147      C1148   1.385       .  A
C1148      H1152   1.083       .  S
C1153      C1158   1.385       .  A
C1153      C1154   1.409       .  A
C1153      S1159   1.721       .  A
C1154      C1155   1.411       .  A
C1154      H1165   1.083       .  S
C1155      C1164   1.376       .  A
C1155      C1156   1.383       .  A
C1156      C1157   1.401       .  A
C1156      S1162   1.709       .  A
C1157      C1158   1.404       .  A
C1157      H1166   1.083       .  S
C1158      C1161   1.369       .  A
S1159      C1160   1.728       .  A
C1160      C1161   1.390       .  A
C1161      H1167   1.083       .  S
S1162      C1163   1.729       .  A
C1163      C1164   1.400       .  A
C1164      H1168   1.082       .  S
C1169      C1174   1.385       .  A
C1169      C1170   1.408       .  A
C1169      S1175   1.719       .  A
C1170      C1171   1.410       .  A
C1170      H1181   1.083       .  S
C1171      C1180   1.378       .  A
C1171      C1172   1.386       .  A
C1172      C1173   1.407       .  A
C1172      S1178   1.718       .  A
C1173      C1174   1.409       .  A
C1173      H1182   1.083       .  S
C1174      C1177   1.377       .  A
S1175      C1176   1.730       .  A
C1176      C1177   1.394       .  A
C1177      H1183   1.083       .  S
S1178      C1179   1.725       .  A
C1179      C1180   1.393       .  A
C1180      H1184   1.083       .  S
C1185      C1190   1.385       .  A
C1185      C1186   1.408       .  A
C1185      S1191   1.721       .  A
C1186      C1187   1.410       .  A
C1186      H1197   1.083       .  S
C1187      C1196   1.376       .  A
C1187      C1188   1.384       .  A
C1188      C1189   1.410       .  A
C1188      S1194   1.726       .  A
C1189      C1190   1.413       .  A
C1189      H1198   1.083       .  S
C1190      C1193   1.379       .  A
S1191      C1192   1.728       .  A
C1192      C1193   1.397       .  A
C1193      H1199   1.083       .  S
S1194      C1195   1.727       .  A
C1195      C1196   1.395       .  A
C1196      H1200   1.083       .  S
C1201      C1206   1.388       .  A
C1201      C1202   1.397       .  A
C1201      S1207   1.700       .  A
C1202      C1203   1.398       .  A
C1202      H1213   1.083       .  S
C1203      C1212   1.366       .  A
C1203      C1204   1.387       .  A
C1204      C1205   1.403       .  A
C1204      S1210   1.708       .  A
C1205      C1206   1.403       .  A
C1205      H1214   1.083       .  S
C1206      C1209   1.372       .  A
S1207      C1208   1.722       .  A
C1208      C1209   1.386       .  A
C1209      H1215   1.083       .  S
S1210      C1211   1.724       .  A
C1211      C1212   1.385       .  A
C1212      H1216   1.083       .  S
C1217      C1222   1.385       .  A
C1217      C1218   1.407       .  A
C1217      S1223   1.718       .  A
C1218      C1219   1.409       .  A
C1218      H1229   1.083       .  S
C1219      C1228   1.375       .  A
C1219      C1220   1.384       .  A
C1220      C1221   1.407       .  A
C1220      S1226   1.719       .  A
C1221      C1222   1.410       .  A
C1221      H1230   1.083       .  S
C1222      C1225   1.377       .  A
S1223      C1224   1.725       .  A
C1224      C1225   1.392       .  A
C1225      H1231   1.083       .  S
S1226      C1227   1.728       .  A
C1227      C1228   1.396       .  A
C1228      H1232   1.083       .  S
C1233      C1238   1.387       .  A
C1233      C1234   1.400       .  A
C1233      S1239   1.708       .  A
C1234      C1235   1.402       .  A
C1234      H1245   1.083       .  S
C1235      C1244   1.364       .  A
C1235      C1236   1.387       .  A
C1236      C1237   1.396       .  A
C1236      S1242   1.706       .  A
C1237      C1238   1.399       .  A
C1237      H1246   1.083       .  S
C1238      C1241   1.363       .  A
S1239      C1240   1.724       .  A
C1240      C1241   1.383       .  A
C1241      H1247   1.083       .  S
S1242      C1243   1.719       .  A
C1243      C1244   1.388       .  A
C1244      H1248   1.083       .  S
C1249      C1254   1.387       .  A
C1249      C1250   1.398       .  A
C1249      S1255   1.706       .  A
C1250      C1251   1.400       .  A
C1250      H1261   1.083       .  S
C1251      C1260   1.362       .  A
C1251      C1252   1.387       .  A
C1252      C1253   1.398       .  A
C1252      S1258   1.707       .  A
C1253      C1254   1.401       .  A
C1253      H1262   1.083       .  S
C1254      C1257   1.364       .  A
S1255      C1256   1.721       .  A
C1256      C1257   1.386       .  A
C1257      H1263   1.083       .  S
S1258      C1259   1.720       .  A
C1259      C1260   1.384       .  A
C1260      H1264   1.083       .  S
C1265      C1270   1.388       .  A
C1265      C1266   1.396       .  A
C1265      S1271   1.701       .  A
C1266      C1267   1.397       .  A
C1266      H1277   1.083       .  S
C1267      C1276   1.364       .  A
C1267      C1268   1.387       .  A
C1268      C1269   1.402       .  A
C1268      S1274   1.707       .  A
C1269      C1270   1.403       .  A
C1269      H1278   1.083       .  S
C1270      C1273   1.370       .  A
S1271      C1272   1.719       .  A
C1272      C1273   1.387       .  A
C1273      H1279   1.083       .  S
S1274      C1275   1.725       .  A
C1275      C1276   1.383       .  A
C1276      H1280   1.083       .  S
C1281      C1286   1.388       .  A
C1281      C1282   1.401       .  A
C1281      S1287   1.703       .  A
C1282      C1283   1.401       .  A
C1282      H1293   1.083       .  S
C1283      C1292   1.371       .  A
C1283      C1284   1.388       .  A
C1284      C1285   1.397       .  A
C1284      S1290   1.696       .  A
C1285      C1286   1.396       .  A
C1285      H1294   1.083       .  S
C1286      C1289   1.366       .  A
S1287      C1288   1.723       .  A
C1288      C1289   1.381       .  A
C1289      H1295   1.083       .  S
S1290      C1291   1.723       .  A
C1291      C1292   1.386       .  A
C1292      H1296   1.083       .  S
C1297      C1302   1.386       .  A
C1297      C1298   1.403       .  A
C1297      S1303   1.712       .  A
C1298      C1299   1.405       .  A
C1298      H1309   1.083       .  S
C1299      C1308   1.371       .  A
C1299      C1300   1.387       .  A
C1300      C1301   1.396       .  A
C1300      S1306   1.701       .  A
C1301      C1302   1.398       .  A
C1301      H1310   1.083       .  S
C1302      C1305   1.363       .  A
S1303      C1304   1.724       .  A
C1304      C1305   1.386       .  A
C1305      H1311   1.083       .  S
S1306      C1307   1.721       .  A
C1307      C1308   1.388       .  A
C1308      H1312   1.083       .  S
C1313      C1318   1.383       .  A
C1313      C1314   1.405       .  A
C1313      S1319   1.718       .  A
C1314      C1315   1.408       .  A
C1314      H1325   1.083       .  S
C1315      C1324   1.372       .  A
C1315      C1316   1.385       .  A
C1316      C1317   1.403       .  A
C1316      S1322   1.716       .  A
C1317      C1318   1.407       .  A
C1317      H1326   1.083       .  S
C1318      C1321   1.368       .  A
S1319      C1320   1.729       .  A
C1320      C1321   1.397       .  A
C1321      H1327   1.083       .  S
S1322      C1323   1.722       .  A
C1323      C1324   1.391       .  A
C1324      H1328   1.083       .  S
C1329      C1334   1.384       .  A
C1329      C1330   1.410       .  A
C1329      S1335   1.727       .  A
C1330      C1331   1.413       .  A
C1330      H1341   1.083       .  S
C1331      C1340   1.376       .  A
C1331      C1332   1.384       .  A
C1332      C1333   1.402       .  A
C1332      S1338   1.715       .  A
C1333      C1334   1.406       .  A
C1333      H1342   1.083       .  S
C1334      C1337   1.368       .  A
S1335      C1336   1.727       .  A
C1336      C1337   1.391       .  A
C1337      H1343   1.084       .  S
S1338      C1339   1.727       .  A
C1339      C1340   1.399       .  A
C1340      H1344   1.083       .  S
C1345      C1350   1.385       .  A
C1345      C1346   1.400       .  A
C1345      S1351   1.710       .  A
C1346      C1347   1.404       .  A
C1346      H1357   1.083       .  S
C1347      C1356   1.365       .  A
C1347      C1348   1.385       .  A
C1348      C1349   1.407       .  A
C1348      S1354   1.723       .  A
C1349      C1350   1.410       .  A
C1349      H1358   1.083       .  S
C1350      C1353   1.373       .  A
S1351      C1352   1.726       .  A
C1352      C1353   1.394       .  A
C1353      H1359   1.083       .  S
S1354      C1355   1.726       .  A
C1355      C1356   1.392       .  A
C1356      H1360   1.083       .  S
C1361      C1366   1.385       .  A
C1361      C1362   1.411       .  A
C1361      S1367   1.725       .  A
C1362      C1363   1.413       .  A
C1362      H1373   1.083       .  S
C1363      C1372   1.380       .  A
C1363      C1364   1.384       .  A
C1364      C1365   1.407       .  A
C1364      S1370   1.718       .  A
C1365      C1366   1.409       .  A
C1365      H1374   1.083       .  S
C1366      C1369   1.376       .  A
S1367      C1368   1.728       .  A
C1368      C1369   1.394       .  A
C1369      H1375   1.083       .  S
S1370      C1371   1.730       .  A
C1371      C1372   1.399       .  A
C1372      H1376   1.083       .  S
C1377      C1382   1.385       .  A
C1377      C1378   1.407       .  A
C1377      S1383   1.722       .  A
C1378      C1379   1.410       .  A
C1378      H1389   1.083       .  S
C1379      C1388   1.372       .  A
C1379      C1380   1.383       .  A
C1380      C1381   1.402       .  A
C1380      S1386   1.714       .  A
C1381      C1382   1.406       .  A
C1381      H1390   1.083       .  S
C1382      C1385   1.368       .  A
S1383      C1384   1.726       .  A
C1384      C1385   1.391       .  A
C1385      H1391   1.083       .  S
S1386      C1387   1.725       .  A
C1387      C1388   1.400       .  A
C1388      H1392   1.083       .  S
C1393      C1398   1.388       .  A
C1393      C1394   1.395       .  A
C1393      S1399   1.699       .  A
C1394      C1395   1.397       .  A
C1394      H1405   1.083       .  S
C1395      C1404   1.364       .  A
C1395      C1396   1.388       .  A
C1396      C1397   1.401       .  A
C1396      S1402   1.706       .  A
C1397      C1398   1.402       .  A
C1397      H1406   1.083       .  S
C1398      C1401   1.369       .  A
S1399      C1400   1.720       .  A
C1400      C1401   1.387       .  A
C1401      H1407   1.083       .  S
S1402      C1403   1.722       .  A
C1403      C1404   1.382       .  A
C1404      H1408   1.083       .  S
C1409      C1414   1.385       .  A
C1409      C1410   1.407       .  A
C1409      S1415   1.707       .  A
C1410      C1411   1.406       .  A
C1410      H1421   1.083       .  S
C1411      C1420   1.382       .  A
C1411      C1412   1.383       .  A
C1412      C1413   1.420       .  A
C1412      S1418   1.725       .  A
C1413      C1414   1.418       .  A
C1413      H1422   1.082       .  S
C1414      C1417   1.395       .  A
S1415      C1416   1.728       .  A
C1416      C1417   1.401       .  A
C1417      H1423   1.082       .  S
S1418      C1419   1.737       .  A
C1419      C1420   1.394       .  A
C1420      H1424   1.083       .  S
C1425      C1430   1.388       .  A
C1425      C1426   1.399       .  A
C1425      S1431   1.705       .  A
C1426      C1427   1.400       .  A
C1426      H1437   1.083       .  S
C1427      C1436   1.367       .  A
C1427      C1428   1.388       .  A
C1428      C1429   1.396       .  A
C1428      S1434   1.700       .  A
C1429      C1430   1.398       .  A
C1429      H1438   1.083       .  S
C1430      C1433   1.364       .  A
S1431      C1432   1.722       .  A
C1432      C1433   1.383       .  A
C1433      H1439   1.083       .  S
S1434      C1435   1.720       .  A
C1435      C1436   1.382       .  A
C1436      H1440   1.083       .  S
C1441      C1446   1.387       .  A
C1441      C1442   1.395       .  A
C1441      S1447   1.701       .  A
C1442      C1443   1.397       .  A
C1442      H1453   1.083       .  S
C1443      C1452   1.363       .  A
C1443      C1444   1.387       .  A
C1444      C1445   1.403       .  A
C1444      S1450   1.711       .  A
C1445      C1446   1.405       .  A
C1445      H1454   1.083       .  S
C1446      C1449   1.370       .  A
S1447      C1448   1.720       .  A
C1448      C1449   1.388       .  A
C1449      H1455   1.083       .  S
S1450      C1451   1.725       .  A
C1451      C1452   1.384       .  A
C1452      H1456   1.083       .  S
C1457      C1462   1.387       .  A
C1457      C1458   1.396       .  A
C1457      S1463   1.701       .  A
C1458      C1459   1.398       .  A
C1458      H1469   1.083       .  S
C1459      C1468   1.364       .  A
C1459      C1460   1.387       .  A
C1460      C1461   1.403       .  A
C1460      S1466   1.711       .  A
C1461      C1462   1.404       .  A
C1461      H1470   1.083       .  S
C1462      C1465   1.371       .  A
S1463      C1464   1.721       .  A
C1464      C1465   1.388       .  A
C1465      H1471   1.083       .  S
S1466      C1467   1.724       .  A
C1467      C1468   1.384       .  A
C1468      H1472   1.084       .  S
C1473      C1478   1.388       .  A
C1473      C1474   1.395       .  A
C1473      S1479   1.695       .  A
C1474      C1475   1.395       .  A
C1474      H1485   1.083       .  S
C1475      C1484   1.363       .  A
C1475      C1476   1.387       .  A
C1476      C1477   1.404       .  A
C1476      S1482   1.710       .  A
C1477      C1478   1.405       .  A
C1477      H1486   1.083       .  S
C1478      C1481   1.374       .  A
S1479      C1480   1.721       .  A
C1480      C1481   1.387       .  A
C1481      H1487   1.083       .  S
S1482      C1483   1.724       .  A
C1483      C1484   1.382       .  A
C1484      H1488   1.083       .  S
C1489      C1494   1.388       .  A
C1489      C1490   1.394       .  A
C1489      S1495   1.697       .  A
C1490      C1491   1.395       .  A
C1490      H1501   1.083       .  S
C1491      C1500   1.362       .  A
C1491      C1492   1.388       .  A
C1492      C1493   1.402       .  A
C1492      S1498   1.708       .  A
C1493      C1494   1.403       .  A
C1493      H1502   1.083       .  S
C1494      C1497   1.370       .  A
S1495      C1496   1.719       .  A
C1496      C1497   1.386       .  A
C1497      H1503   1.083       .  S
S1498      C1499   1.722       .  A
C1499      C1500   1.380       .  A
C1500      H1504   1.083       .  S
C1505      C1510   1.385       .  A
C1505      C1506   1.404       .  A
C1505      S1511   1.715       .  A
C1506      C1507   1.407       .  A
C1506      H1517   1.083       .  S
C1507      C1516   1.372       .  A
C1507      C1508   1.385       .  A
C1508      C1509   1.406       .  A
C1508      S1514   1.719       .  A
C1509      C1510   1.408       .  A
C1509      H1518   1.083       .  S
C1510      C1513   1.374       .  A
S1511      C1512   1.727       .  A
C1512      C1513   1.393       .  A
C1513      H1519   1.083       .  S
S1514      C1515   1.725       .  A
C1515      C1516   1.393       .  A
C1516      H1520   1.083       .  S
C1521      C1526   1.384       .  A
C1521      C1522   1.406       .  A
C1521      S1527   1.719       .  A
C1522      C1523   1.409       .  A
C1522      H1533   1.083       .  S
C1523      C1532   1.373       .  A
C1523      C1524   1.385       .  A
C1524      C1525   1.403       .  A
C1524      S1530   1.716       .  A
C1525      C1526   1.406       .  A
C1525      H1534   1.083       .  S
C1526      C1529   1.369       .  A
S1527      C1528   1.727       .  A
C1528      C1529   1.393       .  A
C1529      H1535   1.083       .  S
S1530      C1531   1.722       .  A
C1531      C1532   1.392       .  A
C1532      H1536   1.083       .  S
C1537      C1542   1.384       .  A
C1537      C1538   1.406       .  A
C1537      S1543   1.717       .  A
C1538      C1539   1.409       .  A
C1538      H1549   1.083       .  S
C1539      C1548   1.374       .  A
C1539      C1540   1.386       .  A
C1540      C1541   1.400       .  A
C1540      S1546   1.709       .  A
C1541      C1542   1.403       .  A
C1541      H1550   1.083       .  S
C1542      C1545   1.366       .  A
S1543      C1544   1.730       .  A
C1544      C1545   1.393       .  A
C1545      H1551   1.083       .  S
S1546      C1547   1.720       .  A
C1547      C1548   1.390       .  A
C1548      H1552   1.083       .  S
C1553      C1558   1.385       .  A
C1553      C1554   1.400       .  A
C1553      S1559   1.710       .  A
C1554      C1555   1.403       .  A
C1554      H1565   1.083       .  S
C1555      C1564   1.367       .  A
C1555      C1556   1.385       .  A
C1556      C1557   1.409       .  A
C1556      S1562   1.723       .  A
C1557      C1558   1.411       .  A
C1557      H1566   1.083       .  S
C1558      C1561   1.376       .  A
S1559      C1560   1.725       .  A
C1560      C1561   1.395       .  A
C1561      H1567   1.083       .  S
S1562      C1563   1.727       .  A
C1563      C1564   1.391       .  A
C1564      H1568   1.083       .  S
C1569      C1574   1.386       .  A
C1569      C1570   1.410       .  A
C1569      S1575   1.715       .  A
C1570      C1571   1.410       .  A
C1570      H1581   1.083       .  S
C1571      C1580   1.383       .  A
C1571      C1572   1.384       .  A
C1572      C1573   1.412       .  A
C1572      S1578   1.719       .  A
C1573      C1574   1.411       .  A
C1573      H1582   1.083       .  S
C1574      C1577   1.385       .  A
S1575      C1576   1.728       .  A
C1576      C1577   1.393       .  A
C1577      H1583   1.082       .  S
S1578      C1579   1.729       .  A
C1579      C1580   1.395       .  A
C1580      H1584   1.083       .  S
C1585      C1590   1.384       .  A
C1585      C1586   1.398       .  A
C1585      S1591   1.712       .  A
C1586      C1587   1.403       .  A
C1586      H1597   1.083       .  S
C1587      C1596   1.363       .  A
C1587      C1588   1.384       .  A
C1588      C1589   1.408       .  A
C1588      S1594   1.725       .  A
C1589      C1590   1.412       .  A
C1589      H1598   1.083       .  S
C1590      C1593   1.372       .  A
S1591      C1592   1.723       .  A
C1592      C1593   1.399       .  A
C1593      H1599   1.083       .  S
S1594      C1595   1.727       .  A
C1595      C1596   1.391       .  A
C1596      H1600   1.083       .  S
C1601      C1606   1.382       .  A
C1601      C1602   1.404       .  A
C1601      S1607   1.714       .  A
C1602      C1603   1.407       .  A
C1602      H1613   1.083       .  S
C1603      C1612   1.370       .  A
C1603      C1604   1.385       .  A
C1604      C1605   1.405       .  A
C1604      S1610   1.720       .  A
C1605      C1606   1.409       .  A
C1605      H1614   1.083       .  S
C1606      C1609   1.371       .  A
S1607      C1608   1.731       .  A
C1608      C1609   1.400       .  A
C1609      H1615   1.082       .  S
S1610      C1611   1.725       .  A
C1611      C1612   1.392       .  A
C1612      H1616   1.083       .  S
C1617      C1622   1.388       .  A
C1617      C1618   1.395       .  A
C1617      S1623   1.695       .  A
C1618      C1619   1.395       .  A
C1618      H1629   1.083       .  S
C1619      C1628   1.364       .  A
C1619      C1620   1.387       .  A
C1620      C1621   1.403       .  A
C1620      S1626   1.706       .  A
C1621      C1622   1.403       .  A
C1621      H1630   1.083       .  S
C1622      C1625   1.372       .  A
S1623      C1624   1.721       .  A
C1624      C1625   1.386       .  A
C1625      H1631   1.083       .  S
S1626      C1627   1.725       .  A
C1627      C1628   1.383       .  A
C1628      H1632   1.083       .  S
C1633      C1638   1.385       .  A
C1633      C1634   1.409       .  A
C1633      S1639   1.719       .  A
C1634      C1635   1.410       .  A
C1634      H1645   1.083       .  S
C1635      C1644   1.378       .  A
C1635      C1636   1.386       .  A
C1636      C1637   1.402       .  A
C1636      S1642   1.710       .  A
C1637      C1638   1.404       .  A
C1637      H1646   1.083       .  S
C1638      C1641   1.371       .  A
S1639      C1640   1.729       .  A
C1640      C1641   1.390       .  A
C1641      H1647   1.083       .  S
S1642      C1643   1.721       .  A
C1643      C1644   1.392       .  A
C1644      H1648   1.083       .  S
C1649      C1654   1.387       .  A
C1649      C1650   1.399       .  A
C1649      S1655   1.704       .  A
C1650      C1651   1.400       .  A
C1650      H1661   1.083       .  S
C1651      C1660   1.367       .  A
C1651      C1652   1.388       .  A
C1652      C1653   1.398       .  A
C1652      S1658   1.702       .  A
C1653      C1654   1.399       .  A
C1653      H1662   1.083       .  S
C1654      C1657   1.366       .  A
S1655      C1656   1.723       .  A
C1656      C1657   1.384       .  A
C1657      H1663   1.083       .  S
S1658      C1659   1.721       .  A
C1659      C1660   1.384       .  A
C1660      H1664   1.083       .  S
C1665      C1670   1.387       .  A
C1665      C1666   1.402       .  A
C1665      S1671   1.709       .  A
C1666      C1667   1.404       .  A
C1666      H1677   1.083       .  S
C1667      C1676   1.369       .  A
C1667      C1668   1.387       .  A
C1668      C1669   1.396       .  A
C1668      S1674   1.702       .  A
C1669      C1670   1.398       .  A
C1669      H1678   1.083       .  S
C1670      C1673   1.364       .  A
S1671      C1672   1.725       .  A
C1672      C1673   1.384       .  A
C1673      H1679   1.083       .  S
S1674      C1675   1.719       .  A
C1675      C1676   1.387       .  A
C1676      H1680   1.083       .  S
C1681      C1686   1.387       .  A
C1681      C1682   1.400       .  A
C1681      S1687   1.707       .  A
C1682      C1683   1.402       .  A
C1682      H1693   1.083       .  S
C1683      C1692   1.367       .  A
C1683      C1684   1.386       .  A
C1684      C1685   1.404       .  A
C1684      S1690   1.713       .  A
C1685      C1686   1.406       .  A
C1685      H1694   1.083       .  S
C1686      C1689   1.372       .  A
S1687      C1688   1.723       .  A
C1688      C1689   1.388       .  A
C1689      H1695   1.083       .  S
S1690      C1691   1.724       .  A
C1691      C1692   1.388       .  A
C1692      H1696   1.083       .  S
C1697      C1702   1.385       .  A
C1697      C1698   1.408       .  A
C1697      S1703   1.722       .  A
C1698      C1699   1.411       .  A
C1698      H1709   1.083       .  S
C1699      C1708   1.375       .  A
C1699      C1700   1.385       .  A
C1700      C1701   1.401       .  A
C1700      S1706   1.713       .  A
C1701      C1702   1.404       .  A
C1701      H1710   1.083       .  S
C1702      C1705   1.369       .  A
S1703      C1704   1.727       .  A
C1704      C1705   1.389       .  A
C1705      H1711   1.083       .  S
S1706      C1707   1.726       .  A
C1707      C1708   1.397       .  A
C1708      H1712   1.083       .  S
C1713      C1718   1.387       .  A
C1713      C1714   1.402       .  A
C1713      S1719   1.707       .  A
C1714      C1715   1.403       .  A
C1714      H1725   1.083       .  S
C1715      C1724   1.370       .  A
C1715      C1716   1.387       .  A
C1716      C1717   1.401       .  A
C1716      S1722   1.706       .  A
C1717      C1718   1.402       .  A
C1717      H1726   1.083       .  S
C1718      C1721   1.370       .  A
S1719      C1720   1.724       .  A
C1720      C1721   1.387       .  A
C1721      H1727   1.083       .  S
S1722      C1723   1.723       .  A
C1723      C1724   1.387       .  A
C1724      H1728   1.083       .  S
C1729      C1734   1.384       .  A
C1729      C1730   1.406       .  A
C1729      S1735   1.714       .  A
C1730      C1731   1.408       .  A
C1730      H1741   1.083       .  S
C1731      C1740   1.376       .  A
C1731      C1732   1.385       .  A
C1732      C1733   1.408       .  A
C1732      S1738   1.718       .  A
C1733      C1734   1.409       .  A
C1733      H1742   1.083       .  S
C1734      C1737   1.377       .  A
S1735      C1736   1.731       .  A
C1736      C1737   1.396       .  A
C1737      H1743   1.083       .  S
S1738      C1739   1.726       .  A
C1739      C1740   1.392       .  A
C1740      H1744   1.083       .  S
C1745      C1750   1.387       .  A
C1745      C1746   1.401       .  A
C1745      S1751   1.702       .  A
C1746      C1747   1.401       .  A
C1746      H1757   1.083       .  S
C1747      C1756   1.372       .  A
C1747      C1748   1.387       .  A
C1748      C1749   1.404       .  A
C1748      S1754   1.705       .  A
C1749      C1750   1.403       .  A
C1749      H1758   1.083       .  S
C1750      C1753   1.375       .  A
S1751      C1752   1.725       .  A
C1752      C1753   1.388       .  A
C1753      H1759   1.083       .  S
S1754      C1755   1.725       .  A
C1755      C1756   1.387       .  A
C1756      H1760   1.083       .  S
C1761      C1766   1.385       .  A
C1761      C1762   1.407       .  A
C1761      S1767   1.720       .  A
C1762      C1763   1.410       .  A
C1762      H1773   1.083       .  S
C1763      C1772   1.375       .  A
C1763      C1764   1.385       .  A
C1764      C1765   1.403       .  A
C1764      S1770   1.713       .  A
C1765      C1766   1.406       .  A
C1765      H1774   1.083       .  S
C1766      C1769   1.371       .  A
S1767      C1768   1.726       .  A
C1768      C1769   1.392       .  A
C1769      H1775   1.083       .  S
S1770      C1771   1.728       .  A
C1771      C1772   1.396       .  A
C1772      H1776   1.083       .  S
C1777      C1782   1.384       .  A
C1777      C1778   1.405       .  A
C1777      S1783   1.715       .  A
C1778      C1779   1.408       .  A
C1778      H1789   1.083       .  S
C1779      C1788   1.374       .  A
C1779      C1780   1.385       .  A
C1780      C1781   1.409       .  A
C1780      S1786   1.722       .  A
C1781      C1782   1.411       .  A
C1781      H1790   1.083       .  S
C1782      C1785   1.377       .  A
S1783      C1784   1.731       .  A
C1784      C1785   1.398       .  A
C1785      H1791   1.082       .  S
S1786      C1787   1.727       .  A
C1787      C1788   1.392       .  A
C1788      H1792   1.083       .  S
C1793      C1798   1.388       .  A
C1793      C1794   1.396       .  A
C1793      S1799   1.695       .  A
C1794      C1795   1.396       .  A
C1794      H1805   1.083       .  S
C1795      C1804   1.366       .  A
C1795      C1796   1.387       .  A
C1796      C1797   1.404       .  A
C1796      S1802   1.707       .  A
C1797      C1798   1.403       .  A
C1797      H1806   1.083       .  S
C1798      C1801   1.374       .  A
S1799      C1800   1.723       .  A
C1800      C1801   1.386       .  A
C1801      H1807   1.083       .  S
S1802      C1803   1.726       .  A
C1803      C1804   1.384       .  A
C1804      H1808   1.083       .  S
C1809      C1814   1.387       .  A
C1809      C1810   1.397       .  A
C1809      S1815   1.706       .  A
C1810      C1811   1.400       .  A
C1810      H1821   1.083       .  S
C1811      C1820   1.362       .  A
C1811      C1812   1.387       .  A
C1812      C1813   1.399       .  A
C1812      S1818   1.709       .  A
C1813      C1814   1.401       .  A
C1813      H1822   1.083       .  S
C1814      C1817   1.365       .  A
S1815      C1816   1.721       .  A
C1816      C1817   1.386       .  A
C1817      H1823   1.083       .  S
S1818      C1819   1.721       .  A
C1819      C1820   1.387       .  A
C1820      H1824   1.084       .  S
C1825      C1830   1.385       .  A
C1825      C1826   1.408       .  A
C1825      S1831   1.720       .  A
C1826      C1827   1.410       .  A
C1826      H1837   1.083       .  S
C1827      C1836   1.377       .  A
C1827      C1828   1.385       .  A
C1828      C1829   1.405       .  A
C1828      S1834   1.715       .  A
C1829      C1830   1.407       .  A
C1829      H1838   1.083       .  S
C1830      C1833   1.374       .  A
S1831      C1832   1.726       .  A
C1832      C1833   1.393       .  A
C1833      H1839   1.083       .  S
S1834      C1835   1.728       .  A
C1835      C1836   1.396       .  A
C1836      H1840   1.083       .  S
C1841      C1846   1.387       .  A
C1841      C1842   1.400       .  A
C1841      S1847   1.705       .  A
C1842      C1843   1.401       .  A
C1842      H1853   1.083       .  S
C1843      C1852   1.368       .  A
C1843      C1844   1.387       .  A
C1844      C1845   1.400       .  A
C1844      S1850   1.704       .  A
C1845      C1846   1.401       .  A
C1845      H1854   1.083       .  S
C1846      C1849   1.368       .  A
S1847      C1848   1.724       .  A
C1848      C1849   1.386       .  A
C1849      H1855   1.083       .  S
S1850      C1851   1.723       .  A
C1851      C1852   1.386       .  A
C1852      H1856   1.083       .  S
C1857      C1862   1.386       .  A
C1857      C1858   1.405       .  A
C1857      S1863   1.715       .  A
C1858      C1859   1.407       .  A
C1858      H1869   1.083       .  S
C1859      C1868   1.374       .  A
C1859      C1860   1.384       .  A
C1860      C1861   1.408       .  A
C1860      S1866   1.719       .  A
C1861      C1862   1.410       .  A
C1861      H1870   1.083       .  S
C1862      C1865   1.378       .  A
S1863      C1864   1.723       .  A
C1864      C1865   1.392       .  A
C1865      H1871   1.083       .  S
S1866      C1867   1.731       .  A
C1867      C1868   1.395       .  A
C1868      H1872   1.083       .  S
C1873      C1878   1.387       .  A
C1873      C1874   1.399       .  A
C1873      S1879   1.704       .  A
C1874      C1875   1.400       .  A
C1874      H1885   1.083       .  S
C1875      C1884   1.367       .  A
C1875      C1876   1.387       .  A
C1876      C1877   1.401       .  A
C1876      S1882   1.706       .  A
C1877      C1878   1.402       .  A
C1877      H1886   1.083       .  S
C1878      C1881   1.370       .  A
S1879      C1880   1.722       .  A
C1880      C1881   1.387       .  A
C1881      H1887   1.083       .  S
S1882      C1883   1.725       .  A
C1883      C1884   1.385       .  A
C1884      H1888   1.083       .  S
C1889      C1894   1.385       .  A
C1889      C1890   1.405       .  A
C1889      S1895   1.719       .  A
C1890      C1891   1.408       .  A
C1890      H1901   1.083       .  S
C1891      C1900   1.372       .  A
C1891      C1892   1.384       .  A
C1892      C1893   1.407       .  A
C1892      S1898   1.721       .  A
C1893      C1894   1.410       .  A
C1893      H1902   1.083       .  S
C1894      C1897   1.374       .  A
S1895      C1896   1.723       .  A
C1896      C1897   1.394       .  A
C1897      H1903   1.083       .  S
S1898      C1899   1.729       .  A
C1899      C1900   1.394       .  A
C1900      H1904   1.083       .  S
C1905      C1910   1.388       .  A
C1905      C1906   1.399       .  A
C1905      S1911   1.706       .  A
C1906      C1907   1.401       .  A
C1906      H1917   1.083       .  S
C1907      C1916   1.366       .  A
C1907      C1908   1.388       .  A
C1908      C1909   1.396       .  A
C1908      S1914   1.701       .  A
C1909      C1910   1.398       .  A
C1909      H1918   1.083       .  S
C1910      C1913   1.362       .  A
S1911      C1912   1.721       .  A
C1912      C1913   1.384       .  A
C1913      H1919   1.084       .  S
S1914      C1915   1.721       .  A
C1915      C1916   1.385       .  A
C1916      H1920   1.083       .  S
C1921      C1926   1.385       .  A
C1921      C1922   1.409       .  A
C1921      S1927   1.724       .  A
C1922      C1923   1.412       .  A
C1922      H1933   1.083       .  S
C1923      C1932   1.376       .  A
C1923      C1924   1.384       .  A
C1924      C1925   1.403       .  A
C1924      S1930   1.715       .  A
C1925      C1926   1.407       .  A
C1925      H1934   1.083       .  S
C1926      C1929   1.370       .  A
S1927      C1928   1.726       .  A
C1928      C1929   1.392       .  A
C1929      H1935   1.083       .  S
S1930      C1931   1.728       .  A
C1931      C1932   1.399       .  A
C1932      H1936   1.083       .  S
C1937      C1942   1.387       .  A
C1937      C1938   1.398       .  A
C1937      S1943   1.706       .  A
C1938      C1939   1.400       .  A
C1938      H1949   1.083       .  S
C1939      C1948   1.364       .  A
C1939      C1940   1.387       .  A
C1940      C1941   1.400       .  A
C1940      S1946   1.709       .  A
C1941      C1942   1.403       .  A
C1941      H1950   1.083       .  S
C1942      C1945   1.366       .  A
S1943      C1944   1.722       .  A
C1944      C1945   1.387       .  A
C1945      H1951   1.083       .  S
S1946      C1947   1.722       .  A
C1947      C1948   1.386       .  A
C1948      H1952   1.083       .  S
C1953      C1958   1.388       .  A
C1953      C1954   1.398       .  A
C1953      S1959   1.699       .  A
C1954      C1955   1.398       .  A
C1954      H1965   1.083       .  S
C1955      C1964   1.368       .  A
C1955      C1956   1.388       .  A
C1956      C1957   1.401       .  A
C1956      S1962   1.703       .  A
C1957      C1958   1.401       .  A
C1957      H1966   1.083       .  S
C1958      C1961   1.371       .  A
S1959      C1960   1.722       .  A
C1960      C1961   1.386       .  A
C1961      H1967   1.083       .  S
S1962      C1963   1.724       .  A
C1963      C1964   1.383       .  A
C1964      H1968   1.083       .  S
C1969      C1974   1.386       .  A
C1969      C1970   1.404       .  A
C1969      S1975   1.711       .  A
C1970      C1971   1.405       .  A
C1970      H1981   1.083       .  S
C1971      C1980   1.373       .  A
C1971      C1972   1.387       .  A
C1972      C1973   1.397       .  A
C1972      S1978   1.700       .  A
C1973      C1974   1.398       .  A
C1973      H1982   1.083       .  S
C1974      C1977   1.365       .  A
S1975      C1976   1.725       .  A
C1976      C1977   1.385       .  A
C1977      H1983   1.083       .  S
S1978      C1979   1.722       .  A
C1979      C1980   1.388       .  A
C1980      H1984   1.083       .  S
C1985      C1990   1.384       .  A
C1985      C1986   1.402       .  A
C1985      S1991   1.716       .  A
C1986      C1987   1.406       .  A
C1986      H1997   1.083       .  S
C1987      C1996   1.369       .  A
C1987      C1988   1.384       .  A
C1988      C1989   1.410       .  A
C1988      S1994   1.726       .  A
C1989      C1990   1.413       .  A
C1989      H1998   1.083       .  S
C1990      C1993   1.376       .  A
S1991      C1992   1.725       .  A
C1992      C1993   1.398       .  A
C1993      H1999   1.083       .  S
S1994      C1995   1.728       .  A
C1995      C1996   1.392       .  A
C1996      H2000   1.083       .  S
C2001      C2006   1.387       .  A
C2001      C2002   1.399       .  A
C2001      S2007   1.702       .  A
C2002      C2003   1.400       .  A
C2002      H2013   1.083       .  S
C2003      C2012   1.367       .  A
C2003      C2004   1.387       .  A
C2004      C2005   1.402       .  A
C2004      S2010   1.708       .  A
C2005      C2006   1.403       .  A
C2005      H2014   1.083       .  S
C2006      C2009   1.371       .  A
S2007      C2008   1.723       .  A
C2008      C2009   1.387       .  A
C2009      H2015   1.083       .  S
S2010      C2011   1.723       .  A
C2011      C2012   1.385       .  A
C2012      H2016   1.083       .  S
C2017      C2022   1.385       .  A
C2017      C2018   1.408       .  A
C2017      S2023   1.721       .  A
C2018      C2019   1.410       .  A
C2018      H2029   1.083       .  S
C2019      C2028   1.375       .  A
C2019      C2020   1.384       .  A
C2020      C2021   1.405       .  A
C2020      S2026   1.717       .  A
C2021      C2022   1.408       .  A
C2021      H2030   1.083       .  S
C2022      C2025   1.373       .  A
S2023      C2024   1.726       .  A
C2024      C2025   1.391       .  A
C2025      H2031   1.083       .  S
S2026      C2027   1.727       .  A
C2027      C2028   1.397       .  A
C2028      H2032   1.083       .  S
C2033      C2038   1.387       .  A
C2033      C2034   1.402       .  A
C2033      S2039   1.708       .  A
C2034      C2035   1.403       .  A
C2034      H2045   1.083       .  S
C2035      C2044   1.371       .  A
C2035      C2036   1.387       .  A
C2036      C2037   1.398       .  A
C2036      S2042   1.703       .  A
C2037      C2038   1.400       .  A
C2037      H2046   1.083       .  S
C2038      C2041   1.367       .  A
S2039      C2040   1.724       .  A
C2040      C2041   1.385       .  A
C2041      H2047   1.083       .  S
S2042      C2043   1.722       .  A
C2043      C2044   1.387       .  A
C2044      H2048   1.083       .  S
C2049      C2054   1.385       .  A
C2049      C2050   1.409       .  A
C2049      S2055   1.722       .  A
C2050      C2051   1.411       .  A
C2050      H2061   1.083       .  S
C2051      C2060   1.377       .  A
C2051      C2052   1.385       .  A
C2052      C2053   1.404       .  A
C2052      S2058   1.714       .  A
C2053      C2054   1.406       .  A
C2053      H2062   1.083       .  S
C2054      C2057   1.372       .  A
S2055      C2056   1.726       .  A
C2056      C2057   1.391       .  A
C2057      H2063   1.083       .  S
S2058      C2059   1.726       .  A
C2059      C2060   1.394       .  A
C2060      H2064   1.083       .  S
C2065      C2070   1.387       .  A
C2065      C2066   1.404       .  A
C2065      S2071   1.709       .  A
C2066      C2067   1.405       .  A
C2066      H2077   1.083       .  S
C2067      C2076   1.373       .  A
C2067      C2068   1.387       .  A
C2068      C2069   1.399       .  A
C2068      S2074   1.704       .  A
C2069      C2070   1.400       .  A
C2069      H2078   1.083       .  S
C2070      C2073   1.368       .  A
S2071      C2072   1.725       .  A
C2072      C2073   1.385       .  A
C2073      H2079   1.083       .  S
S2074      C2075   1.721       .  A
C2075      C2076   1.389       .  A
C2076      H2080   1.083       .  S
C2081      C2086   1.384       .  A
C2081      C2082   1.407       .  A
C2081      S2087   1.725       .  A
C2082      C2083   1.411       .  A
C2082      H2093   1.083       .  S
C2083      C2092   1.372       .  A
C2083      C2084   1.385       .  A
C2084      C2085   1.399       .  A
C2084      S2090   1.713       .  A
C2085      C2086   1.404       .  A
C2085      H2094   1.083       .  S
C2086      C2089   1.363       .  A
S2087      C2088   1.726       .  A
C2088      C2089   1.392       .  A
C2089      H2095   1.084       .  S
S2090      C2091   1.724       .  A
C2091      C2092   1.396       .  A
C2092      H2096   1.083       .  S
C2097      C2102   1.388       .  A
C2097      C2098   1.395       .  A
C2097      S2103   1.700       .  A
C2098      C2099   1.397       .  A
C2098      H2109   1.083       .  S
C2099      C2108   1.362       .  A
C2099      C2100   1.388       .  A
C2100      C2101   1.397       .  A
C2100      S2106   1.702       .  A
C2101      C2102   1.399       .  A
C2101      H2110   1.083       .  S
C2102      C2105   1.363       .  A
S2103      C2104   1.720       .  A
C2104      C2105   1.383       .  A
C2105      H2111   1.083       .  S
S2106      C2107   1.720       .  A
C2107      C2108   1.380       .  A
C2108      H2112   1.083       .  S
C2113      C2118   1.385       .  A
C2113      C2114   1.406       .  A
C2113      S2119   1.719       .  A
C2114      C2115   1.409       .  A
C2114      H2125   1.083       .  S
C2115      C2124   1.373       .  A
C2115      C2116   1.383       .  A
C2116      C2117   1.402       .  A
C2116      S2122   1.711       .  A
C2117      C2118   1.405       .  A
C2117      H2126   1.083       .  S
C2118      C2121   1.369       .  A
S2119      C2120   1.724       .  A
C2120      C2121   1.390       .  A
C2121      H2127   1.083       .  S
S2122      C2123   1.729       .  A
C2123      C2124   1.398       .  A
C2124      H2128   1.083       .  S
C2129      C2134   1.385       .  A
C2129      C2130   1.408       .  A
C2129      S2135   1.719       .  A
C2130      C2131   1.410       .  A
C2130      H2141   1.083       .  S
C2131      C2140   1.377       .  A
C2131      C2132   1.386       .  A
C2132      C2133   1.403       .  A
C2132      S2138   1.713       .  A
C2133      C2134   1.405       .  A
C2133      H2142   1.083       .  S
C2134      C2137   1.372       .  A
S2135      C2136   1.730       .  A
C2136      C2137   1.391       .  A
C2137      H2143   1.083       .  S
S2138      C2139   1.721       .  A
C2139      C2140   1.392       .  A
C2140      H2144   1.083       .  S
C2145      C2150   1.385       .  A
C2145      C2146   1.409       .  A
C2145      S2151   1.718       .  A
C2146      C2147   1.410       .  A
C2146      H2157   1.083       .  S
C2147      C2156   1.379       .  A
C2147      C2148   1.384       .  A
C2148      C2149   1.405       .  A
C2148      S2154   1.712       .  A
C2149      C2150   1.406       .  A
C2149      H2158   1.083       .  S
C2150      C2153   1.375       .  A
S2151      C2152   1.725       .  A
C2152      C2153   1.390       .  A
C2153      H2159   1.083       .  S
S2154      C2155   1.728       .  A
C2155      C2156   1.394       .  A
C2156      H2160   1.083       .  S
C2161      C2166   1.382       .  A
C2161      C2162   1.405       .  A
C2161      S2167   1.713       .  A
C2162      C2163   1.408       .  A
C2162      H2173   1.083       .  S
C2163      C2172   1.374       .  A
C2163      C2164   1.385       .  A
C2164      C2165   1.408       .  A
C2164      S2170   1.721       .  A
C2165      C2166   1.410       .  A
C2165      H2174   1.083       .  S
C2166      C2169   1.377       .  A
S2167      C2168   1.728       .  A
C2168      C2169   1.400       .  A
C2169      H2175   1.083       .  S
S2170      C2171   1.726       .  A
C2171      C2172   1.393       .  A
C2172      H2176   1.083       .  S
C2177      C2182   1.385       .  A
C2177      C2178   1.399       .  A
C2177      S2183   1.708       .  A
C2178      C2179   1.402       .  A
C2178      H2189   1.083       .  S
C2179      C2188   1.366       .  A
C2179      C2180   1.385       .  A
C2180      C2181   1.408       .  A
C2180      S2186   1.721       .  A
C2181      C2182   1.410       .  A
C2181      H2190   1.083       .  S
C2182      C2185   1.375       .  A
S2183      C2184   1.726       .  A
C2184      C2185   1.395       .  A
C2185      H2191   1.083       .  S
S2186      C2187   1.727       .  A
C2187      C2188   1.390       .  A
C2188      H2192   1.083       .  S
C2193      C2198   1.385       .  A
C2193      C2194   1.405       .  A
C2193      S2199   1.716       .  A
C2194      C2195   1.407       .  A
C2194      H2205   1.083       .  S
C2195      C2204   1.371       .  A
C2195      C2196   1.386       .  A
C2196      C2197   1.403       .  A
C2196      S2202   1.716       .  A
C2197      C2198   1.406       .  A
C2197      H2206   1.083       .  S
C2198      C2201   1.370       .  A
S2199      C2200   1.729       .  A
C2200      C2201   1.393       .  A
C2201      H2207   1.083       .  S
S2202      C2203   1.723       .  A
C2203      C2204   1.391       .  A
C2204      H2208   1.083       .  S
C2209      C2214   1.384       .  A
C2209      C2210   1.411       .  A
C2209      S2215   1.728       .  A
C2210      C2211   1.414       .  A
C2210      H2221   1.083       .  S
C2211      C2220   1.378       .  A
C2211      C2212   1.385       .  A
C2212      C2213   1.401       .  A
C2212      S2218   1.714       .  A
C2213      C2214   1.405       .  A
C2213      H2222   1.083       .  S
C2214      C2217   1.368       .  A
S2215      C2216   1.729       .  A
C2216      C2217   1.392       .  A
C2217      H2223   1.083       .  S
S2218      C2219   1.723       .  A
C2219      C2220   1.397       .  A
C2220      H2224   1.083       .  S
C2225      C2230   1.388       .  A
C2225      C2226   1.399       .  A
C2225      S2231   1.701       .  A
C2226      C2227   1.400       .  A
C2226      H2237   1.083       .  S
C2227      C2236   1.369       .  A
C2227      C2228   1.387       .  A
C2228      C2229   1.403       .  A
C2228      S2234   1.708       .  A
C2229      C2230   1.403       .  A
C2229      H2238   1.083       .  S
C2230      C2233   1.373       .  A
S2231      C2232   1.723       .  A
C2232      C2233   1.385       .  A
C2233      H2239   1.083       .  S
S2234      C2235   1.724       .  A
C2235      C2236   1.385       .  A
C2236      H2240   1.083       .  S
C2241      C2246   1.385       .  A
C2241      C2242   1.405       .  A
C2241      S2247   1.717       .  A
C2242      C2243   1.408       .  A
C2242      H2253   1.083       .  S
C2243      C2252   1.374       .  A
C2243      C2244   1.383       .  A
C2244      C2245   1.410       .  A
C2244      S2250   1.721       .  A
C2245      C2246   1.412       .  A
C2245      H2254   1.083       .  S
C2246      C2249   1.378       .  A
S2247      C2248   1.723       .  A
C2248      C2249   1.394       .  A
C2249      H2255   1.083       .  S
S2250      C2251   1.733       .  A
C2251      C2252   1.398       .  A
C2252      H2256   1.082       .  S
C2257      C2262   1.387       .  A
C2257      C2258   1.399       .  A
C2257      S2263   1.708       .  A
C2258      C2259   1.401       .  A
C2258      H2269   1.083       .  S
C2259      C2268   1.368       .  A
C2259      C2260   1.387       .  A
C2260      C2261   1.400       .  A
C2260      S2266   1.706       .  A
C2261      C2262   1.402       .  A
C2261      H2270   1.083       .  S
C2262      C2265   1.366       .  A
S2263      C2264   1.719       .  A
C2264      C2265   1.386       .  A
C2265      H2271   1.083       .  S
S2266      C2267   1.724       .  A
C2267      C2268   1.385       .  A
C2268      H2272   1.083       .  S
C2273      C2278   1.385       .  A
C2273      C2274   1.407       .  A
C2273      S2279   1.724       .  A
C2274      C2275   1.410       .  A
C2274      H2285   1.083       .  S
C2275      C2284   1.373       .  A
C2275      C2276   1.384       .  A
C2276      C2277   1.405       .  A
C2276      S2282   1.719       .  A
C2277      C2278   1.408       .  A
C2277      H2286   1.083       .  S
C2278      C2281   1.370       .  A
S2279      C2280   1.725       .  A
C2280      C2281   1.394       .  A
C2281      H2287   1.083       .  S
S2282      C2283   1.729       .  A
C2283      C2284   1.397       .  A
C2284      H2288   1.083       .  S
C2289      C2294   1.387       .  A
C2289      C2290   1.398       .  A
C2289      S2295   1.705       .  A
C2290      C2291   1.400       .  A
C2290      H2301   1.083       .  S
C2291      C2300   1.365       .  A
C2291      C2292   1.388       .  A
C2292      C2293   1.397       .  A
C2292      S2298   1.703       .  A
C2293      C2294   1.399       .  A
C2293      H2302   1.083       .  S
C2294      C2297   1.363       .  A
S2295      C2296   1.721       .  A
C2296      C2297   1.384       .  A
C2297      H2303   1.083       .  S
S2298      C2299   1.721       .  A
C2299      C2300   1.385       .  A
C2300      H2304   1.083       .  S
C2305      C2310   1.385       .  A
C2305      C2306   1.402       .  A
C2305      S2311   1.714       .  A
C2306      C2307   1.405       .  A
C2306      H2317   1.083       .  S
C2307      C2316   1.369       .  A
C2307      C2308   1.382       .  A
C2308      C2309   1.410       .  A
C2308      S2314   1.722       .  A
C2309      C2310   1.413       .  A
C2309      H2318   1.083       .  S
C2310      C2313   1.377       .  A
S2311      C2312   1.721       .  A
C2312      C2313   1.394       .  A
C2313      H2319   1.083       .  S
S2314      C2315   1.733       .  A
C2315      C2316   1.397       .  A
C2316      H2320   1.083   1_655  S
C2321      C2326   1.388       .  A
C2321      C2322   1.398       .  A
C2321      S2327   1.700       .  A
C2322      C2323   1.399       .  A
C2322      H2333   1.083       .  S
C2323      C2332   1.368       .  A
C2323      C2324   1.387       .  A
C2324      C2325   1.402       .  A
C2324      S2330   1.706       .  A
C2325      C2326   1.402       .  A
C2325      H2334   1.083       .  S
C2326      C2329   1.370       .  A
S2327      C2328   1.721       .  A
C2328      C2329   1.386       .  A
C2329      H2335   1.083       .  S
S2330      C2331   1.725       .  A
C2331      C2332   1.384       .  A
C2332      H2336   1.083       .  S
C2337      C2342   1.385       .  A
C2337      C2338   1.402       .  A
C2337      S2343   1.712       .  A
C2338      C2339   1.405       .  A
C2338      H2349   1.083       .  S
C2339      C2348   1.368       .  A
C2339      C2340   1.384       .  A
C2340      C2341   1.410       .  A
C2340      S2346   1.724       .  A
C2341      C2342   1.412       .  A
C2341      H2350   1.082       .  S
C2342      C2345   1.378       .  A
S2343      C2344   1.722       .  A
C2344      C2345   1.394       .  A
C2345      H2351   1.083       .  S
S2346      C2347   1.729       .  A
C2347      C2348   1.393       .  A
C2348      H2352   1.083       .  S
C2353      C2358   1.387       .  A
C2353      C2354   1.401       .  A
C2353      S2359   1.709       .  A
C2354      C2355   1.403       .  A
C2354      H2365   1.083       .  S
C2355      C2364   1.368       .  A
C2355      C2356   1.387       .  A
C2356      C2357   1.397       .  A
C2356      S2362   1.704       .  A
C2357      C2358   1.399       .  A
C2357      H2366   1.083       .  S
C2358      C2361   1.364       .  A
S2359      C2360   1.723       .  A
C2360      C2361   1.385       .  A
C2361      H2367   1.083       .  S
S2362      C2363   1.720       .  A
C2363      C2364   1.386       .  A
C2364      H2368   1.083       .  S
C2369      C2374   1.383       .  A
C2369      C2370   1.410       .  A
C2369      S2375   1.728       .  A
C2370      C2371   1.413       .  A
C2370      H2381   1.083       .  S
C2371      C2380   1.377       .  A
C2371      C2372   1.385       .  A
C2372      C2373   1.404       .  A
C2372      S2378   1.718       .  A
C2373      C2374   1.408       .  A
C2373      H2382   1.083       .  S
C2374      C2377   1.369       .  A
S2375      C2376   1.728       .  A
C2376      C2377   1.397       .  A
C2377      H2383   1.083       .  S
S2378      C2379   1.726       .  A
C2379      C2380   1.396       .  A
C2380      H2384   1.083       .  S
C2385      C2390   1.387       .  A
C2385      C2386   1.399       .  A
C2385      S2391   1.708       .  A
C2386      C2387   1.401       .  A
C2386      H2397   1.083       .  S
C2387      C2396   1.366       .  A
C2387      C2388   1.387       .  A
C2388      C2389   1.400       .  A
C2388      S2394   1.708       .  A
C2389      C2390   1.402       .  A
C2389      H2398   1.083       .  S
C2390      C2393   1.366       .  A
S2391      C2392   1.721       .  A
C2392      C2393   1.388       .  A
C2393      H2399   1.083       .  S
S2394      C2395   1.723       .  A
C2395      C2396   1.386       .  A
C2396      H2400   1.083       .  S
C2401      C2406   1.384       .  A
C2401      C2402   1.410       .  A
C2401      S2407   1.721       .  A
C2402      C2403   1.412       .  A
C2402      H2413   1.083       .  S
C2403      C2412   1.381       .  A
C2403      C2404   1.385       .  A
C2404      C2405   1.404       .  A
C2404      S2410   1.713       .  A
C2405      C2406   1.406       .  A
C2405      H2414   1.083       .  S
C2406      C2409   1.373       .  A
S2407      C2408   1.730       .  A
C2408      C2409   1.394       .  A
C2409      H2415   1.083       .  S
S2410      C2411   1.723       .  A
C2411      C2412   1.394       .  A
C2412      H2416   1.083       .  S
C2417      C2422   1.383       .  A
C2417      C2418   1.405       .  A
C2417      S2423   1.716       .  A
C2418      C2419   1.408       .  A
C2418      H2429   1.083       .  S
C2419      C2428   1.375       .  A
C2419      C2420   1.384       .  A
C2420      C2421   1.413       .  A
C2420      S2426   1.728       .  A
C2421      C2422   1.415       .  A
C2421      H2430   1.083       .  S
C2422      C2425   1.382       .  A
S2423      C2424   1.730       .  A
C2424      C2425   1.401       .  A
C2425      H2431   1.083       .  S
S2426      C2427   1.730       .  A
C2427      C2428   1.394       .  A
C2428      H2432   1.083       .  S
C2433      C2438   1.385       .  A
C2433      C2434   1.398       .  A
C2433      S2439   1.709       .  A
C2434      C2435   1.402       .  A
C2434      H2445   1.083       .  S
C2435      C2444   1.363       .  A
C2435      C2436   1.383       .  A
C2436      C2437   1.412       .  A
C2436      S2442   1.730       .  A
C2437      C2438   1.415       .  A
C2437      H2446   1.083       .  S
C2438      C2441   1.379       .  A
S2439      C2440   1.725       .  A
C2440      C2441   1.398       .  A
C2441      H2447   1.083       .  S
S2442      C2443   1.730       .  A
C2443      C2444   1.393       .  A
C2444      H2448   1.083       .  S
C2449      C2454   1.386       .  A
C2449      C2450   1.407       .  A
C2449      S2455   1.717       .  A
C2450      C2451   1.409       .  A
C2450      H2461   1.083       .  S
C2451      C2460   1.376       .  A
C2451      C2452   1.384       .  A
C2452      C2453   1.408       .  A
C2452      S2458   1.718       .  A
C2453      C2454   1.409       .  A
C2453      H2462   1.083       .  S
C2454      C2457   1.377       .  A
S2455      C2456   1.725       .  A
C2456      C2457   1.391       .  A
C2457      H2463   1.083       .  S
S2458      C2459   1.730       .  A
C2459      C2460   1.396       .  A
C2460      H2464   1.083       .  S
C2465      C2470   1.385       .  A
C2465      C2466   1.407       .  A
C2465      S2471   1.718       .  A
C2466      C2467   1.409       .  A
C2466      H2477   1.083       .  S
C2467      C2476   1.376       .  A
C2467      C2468   1.382       .  A
C2468      C2469   1.406       .  A
C2468      S2474   1.714       .  A
C2469      C2470   1.408       .  A
C2469      H2478   1.083       .  S
C2470      C2473   1.375       .  A
S2471      C2472   1.724       .  A
C2472      C2473   1.392       .  A
C2473      H2479   1.083       .  S
S2474      C2475   1.733       .  A
C2475      C2476   1.400       .  A
C2476      H2480   1.082       .  S
C2481      C2486   1.385       .  A
C2481      C2482   1.409       .  A
C2481      S2487   1.725       .  A
C2482      C2483   1.412       .  A
C2482      H2493   1.083       .  S
C2483      C2492   1.375       .  A
C2483      C2484   1.385       .  A
C2484      C2485   1.400       .  A
C2484      S2490   1.712       .  A
C2485      C2486   1.404       .  A
C2485      H2494   1.083       .  S
C2486      C2489   1.367       .  A
S2487      C2488   1.727       .  A
C2488      C2489   1.390       .  A
C2489      H2495   1.083       .  S
S2490      C2491   1.724       .  A
C2491      C2492   1.396       .  A
C2492      H2496   1.083       .  S
C2497      C2502   1.384       .  A
C2497      C2498   1.412       .  A
C2497      S2503   1.722       .  A
C2498      C2499   1.413       .  A
C2498      H2509   1.083       .  S
C2499      C2508   1.383       .  A
C2499      C2500   1.386       .  A
C2500      C2501   1.402       .  A
C2500      S2506   1.708       .  A
C2501      C2502   1.404       .  A
C2501      H2510   1.083       .  S
C2502      C2505   1.371       .  A
S2503      C2504   1.731       .  A
C2504      C2505   1.392       .  A
C2505      H2511   1.083       .  S
S2506      C2507   1.723       .  A
C2507      C2508   1.394       .  A
C2508      H2512   1.083       .  S
C2513      C2518   1.385       .  A
C2513      C2514   1.401       .  A
C2513      S2519   1.713       .  A
C2514      C2515   1.405       .  A
C2514      H2525   1.083       .  S
C2515      C2524   1.367       .  A
C2515      C2516   1.384       .  A
C2516      C2517   1.408       .  A
C2516      S2522   1.724       .  A
C2517      C2518   1.411       .  A
C2517      H2526   1.083       .  S
C2518      C2521   1.375       .  A
S2519      C2520   1.727       .  A
C2520      C2521   1.396       .  A
C2521      H2527   1.083       .  S
S2522      C2523   1.726       .  A
C2523      C2524   1.393       .  A
C2524      H2528   1.083       .  S
C2529      C2534   1.386       .  A
C2529      C2530   1.399       .  A
C2529      S2535   1.706       .  A
C2530      C2531   1.401       .  A
C2530      H2541   1.083       .  S
C2531      C2540   1.367       .  A
C2531      C2532   1.384       .  A
C2532      C2533   1.412       .  A
C2532      S2538   1.726       .  A
C2533      C2534   1.414       .  A
C2533      H2542   1.082       .  S
C2534      C2537   1.381       .  A
S2535      C2536   1.722       .  A
C2536      C2537   1.393       .  A
C2537      H2543   1.082       .  S
S2538      C2539   1.729       .  A
C2539      C2540   1.388       .  A
C2540      H2544   1.084       .  S
C2545      C2550   1.383       .  A
C2545      C2546   1.399       .  A
C2545      S2551   1.709       .  A
C2546      C2547   1.403       .  A
C2546      H2557   1.083       .  S
C2547      C2556   1.365       .  A
C2547      C2548   1.385       .  A
C2548      C2549   1.409       .  A
C2548      S2554   1.724       .  A
C2549      C2550   1.413       .  A
C2549      H2558   1.083       .  S
C2550      C2553   1.375       .  A
S2551      C2552   1.727       .  A
C2552      C2553   1.401       .  A
C2553      H2559   1.082       .  S
S2554      C2555   1.727       .  A
C2555      C2556   1.390       .  A
C2556      H2560   1.084       .  S
C2561      C2566   1.384       .  A
C2561      C2562   1.412       .  A
C2561      S2567   1.725       .  A
C2562      C2563   1.414       .  A
C2562      H2573   1.082       .  S
C2563      C2572   1.380       .  A
C2563      C2564   1.386       .  A
C2564      C2565   1.396       .  A
C2564      S2570   1.703       .  A
C2565      C2566   1.399       .  A
C2565      H2574   1.083       .  S
C2566      C2569   1.363       .  A
S2567      C2568   1.729       .  A
C2568      C2569   1.386       .  A
C2569      H2575   1.084       .  S
S2570      C2571   1.721       .  A
C2571      C2572   1.394       .  A
C2572      H2576   1.083       .  S
C2577      C2582   1.383       .  A
C2577      C2578   1.402       .  A
C2577      S2583   1.712       .  A
C2578      C2579   1.406       .  A
C2578      H2589   1.083       .  S
C2579      C2588   1.368       .  A
C2579      C2580   1.384       .  A
C2580      C2581   1.412       .  A
C2580      S2586   1.729       .  A
C2581      C2582   1.415       .  A
C2581      H2590   1.082       .  S
C2582      C2585   1.379       .  A
S2583      C2584   1.727       .  A
C2584      C2585   1.400       .  A
C2585      H2591   1.083       .  S
S2586      C2587   1.729       .  A
C2587      C2588   1.395       .  A
C2588      H2592   1.083       .  S
C2593      C2598   1.383       .  A
C2593      C2594   1.405       .  A
C2593      S2599   1.715       .  A
C2594      C2595   1.408       .  A
C2594      H2605   1.083       .  S
C2595      C2604   1.373       .  A
C2595      C2596   1.386       .  A
C2596      C2597   1.403       .  A
C2596      S2602   1.715       .  A
C2597      C2598   1.406       .  A
C2597      H2606   1.083       .  S
C2598      C2601   1.370       .  A
S2599      C2600   1.732       .  A
C2600      C2601   1.396       .  A
C2601      H2607   1.082       .  S
S2602      C2603   1.722       .  A
C2603      C2604   1.391       .  A
C2604      H2608   1.083       .  S
C2609      C2614   1.386       .  A
C2609      C2610   1.396       .  A
C2609      S2615   1.708       .  A
C2610      C2611   1.401       .  A
C2610      H2621   1.083       .  S
C2611      C2620   1.361       .  A
C2611      C2612   1.383       .  A
C2612      C2613   1.413       .  A
C2612      S2618   1.732       .  A
C2613      C2614   1.417       .  A
C2613      H2622   1.082       .  S
C2614      C2617   1.380       .  A
S2615      C2616   1.722       .  A
C2616      C2617   1.398       .  A
C2617      H2623   1.083       .  S
S2618      C2619   1.731       .  A
C2619      C2620   1.392       .  A
C2620      H2624   1.083       .  S
C2625      C2630   1.385       .  A
C2625      C2626   1.401       .  A
C2625      S2631   1.710       .  A
C2626      C2627   1.403       .  A
C2626      H2637   1.083       .  S
C2627      C2636   1.368       .  A
C2627      C2628   1.385       .  A
C2628      C2629   1.407       .  A
C2628      S2634   1.720       .  A
C2629      C2630   1.410       .  A
C2629      H2638   1.083       .  S
C2630      C2633   1.374       .  A
S2631      C2632   1.726       .  A
C2632      C2633   1.396       .  A
C2633      H2639   1.083       .  S
S2634      C2635   1.725       .  A
C2635      C2636   1.388       .  A
C2636      H2640   1.083       .  S
C2641      C2646   1.386       .  A
C2641      C2642   1.397       .  A
C2641      S2647   1.708       .  A
C2642      C2643   1.401       .  A
C2642      H2653   1.083       .  S
C2643      C2652   1.364       .  A
C2643      C2644   1.383       .  A
C2644      C2645   1.414       .  A
C2644      S2650   1.731       .  A
C2645      C2646   1.417       .  A
C2645      H2654   1.082       .  S
C2646      C2649   1.381       .  A
S2647      C2648   1.721       .  A
C2648      C2649   1.398       .  A
C2649      H2655   1.083       .  S
S2650      C2651   1.731       .  A
C2651      C2652   1.391       .  A
C2652      H2656   1.083       .  S
C2657      C2662   1.386       .  A
C2657      C2658   1.400       .  A
C2657      S2663   1.711       .  A
C2658      C2659   1.404       .  A
C2658      H2669   1.083       .  S
C2659      C2668   1.366       .  A
C2659      C2660   1.385       .  A
C2660      C2661   1.407       .  A
C2660      S2666   1.721       .  A
C2661      C2662   1.410       .  A
C2661      H2670   1.083       .  S
C2662      C2665   1.373       .  A
S2663      C2664   1.724       .  A
C2664      C2665   1.392       .  A
C2665      H2671   1.083       .  S
S2666      C2667   1.726       .  A
C2667      C2668   1.392       .  A
C2668      H2672   1.083       .  S
C2673      C2678   1.385       .  A
C2673      C2674   1.403       .  A
C2673      S2679   1.715       .  A
C2674      C2675   1.407       .  A
C2674      H2685   1.083       .  S
C2675      C2684   1.372       .  A
C2675      C2676   1.380       .  A
C2676      C2677   1.410       .  A
C2676      S2682   1.718       .  A
C2677      C2678   1.412       .  A
C2677      H2686   1.083       .  S
C2678      C2681   1.378       .  A
S2679      C2680   1.722       .  A
C2680      C2681   1.395       .  A
C2681      H2687   1.083       .  S
S2682      C2683   1.737       .  A
C2683      C2684   1.402       .  A
C2684      H2688   1.080       .  S
C2689      C2694   1.386       .  A
C2689      C2690   1.402       .  A
C2689      S2695   1.713       .  A
C2690      C2691   1.404       .  A
C2690      H2701   1.083       .  S
C2691      C2700   1.368       .  A
C2691      C2692   1.383       .  A
C2692      C2693   1.406       .  A
C2692      S2698   1.717       .  A
C2693      C2694   1.409       .  A
C2693      H2702   1.083       .  S
C2694      C2697   1.374       .  A
S2695      C2696   1.721       .  A
C2696      C2697   1.392       .  A
C2697      H2703   1.083       .  S
S2698      C2699   1.732       .  A
C2699      C2700   1.394       .  A
C2700      H2704   1.083       .  S
C2705      C2710   1.385       .  A
C2705      C2706   1.398       .  A
C2705      S2711   1.710       .  A
C2706      C2707   1.402       .  A
C2706      H2717   1.083       .  S
C2707      C2716   1.363       .  A
C2707      C2708   1.384       .  A
C2708      C2709   1.410       .  A
C2708      S2714   1.728       .  A
C2709      C2710   1.414       .  A
C2709      H2718   1.083       .  S
C2710      C2713   1.377       .  A
S2711      C2712   1.724       .  A
C2712      C2713   1.397       .  A
C2713      H2719   1.083       .  S
S2714      C2715   1.728       .  A
C2715      C2716   1.391       .  A
C2716      H2720   1.084       .  S
C2721      C2726   1.384       .  A
C2721      C2722   1.411       .  A
C2721      S2727   1.725       .  A
C2722      C2723   1.413       .  A
C2722      H2733   1.083       .  S
C2723      C2732   1.380       .  A
C2723      C2724   1.385       .  A
C2724      C2725   1.406       .  A
C2724      S2730   1.717       .  A
C2725      C2726   1.408       .  A
C2725      H2734   1.083       .  S
C2726      C2729   1.374       .  A
S2727      C2728   1.728       .  A
C2728      C2729   1.395       .  A
C2729      H2735   1.083       .  S
S2730      C2731   1.727       .  A
C2731      C2732   1.397       .  A
C2732      H2736   1.083       .  S
C2737      C2742   1.385       .  A
C2737      C2738   1.401       .  A
C2737      S2743   1.711       .  A
C2738      C2739   1.404       .  A
C2738      H2749   1.083       .  S
C2739      C2748   1.368       .  A
C2739      C2740   1.383       .  A
C2740      C2741   1.410       .  A
C2740      S2746   1.723       .  A
C2741      C2742   1.413       .  A
C2741      H2750   1.083       .  S
C2742      C2745   1.377       .  A
S2743      C2744   1.721       .  A
C2744      C2745   1.395       .  A
C2745      H2751   1.083       .  S
S2746      C2747   1.732       .  A
C2747      C2748   1.395       .  A
C2748      H2752   1.083       .  S
C2753      C2758   1.385       .  A
C2753      C2754   1.412       .  A
C2753      S2759   1.722       .  A
C2754      C2755   1.412       .  A
C2754      H2765   1.083       .  S
C2755      C2764   1.383       .  A
C2755      C2756   1.387       .  A
C2756      C2757   1.400       .  A
C2756      S2762   1.705       .  A
C2757      C2758   1.402       .  A
C2757      H2766   1.083       .  S
C2758      C2761   1.370       .  A
S2759      C2760   1.728       .  A
C2760      C2761   1.388       .  A
C2761      H2767   1.083       .  S
S2762      C2763   1.723       .  A
C2763      C2764   1.393       .  A
C2764      H2768   1.083       .  S
C2769      C2774   1.383       .  A
C2769      C2770   1.398       .  A
C2769      S2775   1.703       .  A
C2770      C2771   1.401       .  A
C2770      H2781   1.083       .  S
C2771      C2780   1.367       .  A
C2771      C2772   1.385       .  A
C2772      C2773   1.413       .  A
C2772      S2778   1.726       .  A
C2773      C2774   1.414       .  A
C2773      H2782   1.082       .  S
C2774      C2777   1.381       .  A
S2775      C2776   1.726       .  A
C2776      C2777   1.401       .  A
C2777      H2783   1.082       .  S
S2778      C2779   1.729       .  A
C2779      C2780   1.389       .  A
C2780      H2784   1.083       .  S
C2785      C2790   1.385       .  A
C2785      C2786   1.410       .  A
C2785      S2791   1.722       .  A
C2786      C2787   1.412       .  A
C2786      H2797   1.082       .  S
C2787      C2796   1.381       .  A
C2787      C2788   1.385       .  A
C2788      C2789   1.403       .  A
C2788      S2794   1.710       .  A
C2789      C2790   1.404       .  A
C2789      H2798   1.083       .  S
C2790      C2793   1.371       .  A
S2791      C2792   1.728       .  A
C2792      C2793   1.391       .  A
C2793      H2799   1.083       .  S
S2794      C2795   1.724       .  A
C2795      C2796   1.393       .  A
C2796      H2800   1.083       .  S
C2801      C2806   1.384       .  A
C2801      C2802   1.399       .  A
C2801      S2807   1.713       .  A
C2802      C2803   1.403       .  A
C2802      H2813   1.083       .  S
C2803      C2812   1.363       .  A
C2803      C2804   1.384       .  A
C2804      C2805   1.410       .  A
C2804      S2810   1.728       .  A
C2805      C2806   1.414       .  A
C2805      H2814   1.083       .  S
C2806      C2809   1.374       .  A
S2807      C2808   1.724       .  A
C2808      C2809   1.399       .  A
C2809      H2815   1.083       .  S
S2810      C2811   1.729       .  A
C2811      C2812   1.392       .  A
C2812      H2816   1.083       .  S
C2817      C2822   1.384       .  A
C2817      C2818   1.410       .  A
C2817      S2823   1.719       .  A
C2818      C2819   1.411       .  A
C2818      H2829   1.083       .  S
C2819      C2828   1.380       .  A
C2819      C2820   1.386       .  A
C2820      C2821   1.399       .  A
C2820      S2826   1.704       .  A
C2821      C2822   1.401       .  A
C2821      H2830   1.083       .  S
C2822      C2825   1.368       .  A
S2823      C2824   1.728       .  A
C2824      C2825   1.387       .  A
C2825      H2831   1.084       .  S
S2826      C2827   1.722       .  A
C2827      C2828   1.391       .  A
C2828      H2832   1.083       .  S
C2833      C2838   1.385       .  A
C2833      C2834   1.399       .  A
C2833      S2839   1.710       .  A
C2834      C2835   1.402       .  A
C2834      H2845   1.083       .  S
C2835      C2844   1.366       .  A
C2835      C2836   1.385       .  A
C2836      C2837   1.409       .  A
C2836      S2842   1.724       .  A
C2837      C2838   1.412       .  A
C2837      H2846   1.083       .  S
C2838      C2841   1.376       .  A
S2839      C2840   1.723       .  A
C2840      C2841   1.397       .  A
C2841      H2847   1.083       .  S
S2842      C2843   1.728       .  A
C2843      C2844   1.390       .  A
C2844      H2848   1.083       .  S
C2849      C2854   1.387       .  A
C2849      C2850   1.402       .  A
C2849      S2855   1.696       .  A
C2850      C2851   1.399       .  A
C2850      H2861   1.083       .  S
C2851      C2860   1.376       .  A
C2851      C2852   1.386       .  A
C2852      C2853   1.413       .  A
C2852      S2858   1.711       .  A
C2853      C2854   1.410       .  A
C2853      H2862   1.083       .  S
C2854      C2857   1.389       .  A
S2855      C2856   1.728       .  A
C2856      C2857   1.394       .  A
C2857      H2863   1.082       .  S
S2858      C2859   1.734       .  A
C2859      C2860   1.387       .  A
C2860      H2864   1.083       .  S
C2865      C2870   1.384       .  A
C2865      C2866   1.409       .  A
C2865      S2871   1.720       .  A
C2866      C2867   1.411       .  A
C2866      H2877   1.083       .  S
C2867      C2876   1.379       .  A
C2867      C2868   1.385       .  A
C2868      C2869   1.407       .  A
C2868      S2874   1.717       .  A
C2869      C2870   1.409       .  A
C2869      H2878   1.083       .  S
C2870      C2873   1.375       .  A
S2871      C2872   1.732       .  A
C2872      C2873   1.397       .  A
C2873      H2879   1.083       .  S
S2874      C2875   1.724       .  A
C2875      C2876   1.393       .  A
C2876      H2880   1.083       .  S
C2881      C2886   1.386       .  A
C2881      C2882   1.404       .  A
C2881      S2887   1.716       .  A
C2882      C2883   1.407       .  A
C2882      H2893   1.083       .  S
C2883      C2892   1.372       .  A
C2883      C2884   1.383       .  A
C2884      C2885   1.408       .  A
C2884      S2890   1.721       .  A
C2885      C2886   1.411       .  A
C2885      H2894   1.083       .  S
C2886      C2889   1.376       .  A
S2887      C2888   1.722       .  A
C2888      C2889   1.393       .  A
C2889      H2895   1.083       .  S
S2890      C2891   1.732       .  A
C2891      C2892   1.397       .  A
C2892      H2896   1.083       .  S
C2897      C2902   1.383       .  A
C2897      C2898   1.415       .  A
C2897      S2903   1.733       .  A
C2898      C2899   1.418       .  A
C2898      H2909   1.082       .  S
C2899      C2908   1.382       .  A
C2899      C2900   1.384       .  A
C2900      C2901   1.401       .  A
C2900      S2906   1.715       .  A
C2901      C2902   1.406       .  A
C2901      H2910   1.083       .  S
C2902      C2905   1.368       .  A
S2903      C2904   1.732       .  A
C2904      C2905   1.396       .  A
C2905      H2911   1.083       .  S
S2906      C2907   1.726       .  A
C2907      C2908   1.402       .  A
C2908      H2912   1.083       .  S
C2913      C2918   1.385       .  A
C2913      C2914   1.405       .  A
C2913      S2919   1.716       .  A
C2914      C2915   1.407       .  A
C2914      H2925   1.083       .  S
C2915      C2924   1.374       .  A
C2915      C2916   1.384       .  A
C2916      C2917   1.408       .  A
C2916      S2922   1.720       .  A
C2917      C2918   1.410       .  A
C2917      H2926   1.083       .  S
C2918      C2921   1.377       .  A
S2919      C2920   1.723       .  A
C2920      C2921   1.393       .  A
C2921      H2927   1.083       .  S
S2922      C2923   1.731       .  A
C2923      C2924   1.396       .  A
C2924      H2928   1.083       .  S
C2929      C2934   1.385       .  A
C2929      C2930   1.397       .  A
C2929      S2935   1.711       .  A
C2930      C2931   1.402       .  A
C2930      H2941   1.083       .  S
C2931      C2940   1.361       .  A
C2931      C2932   1.384       .  A
C2932      C2933   1.409       .  A
C2932      S2938   1.728       .  A
C2933      C2934   1.413       .  A
C2933      H2942   1.083       .  S
C2934      C2937   1.374       .  A
S2935      C2936   1.724       .  A
C2936      C2937   1.398       .  A
C2937      H2943   1.083       .  S
S2938      C2939   1.729       .  A
C2939      C2940   1.392       .  A
C2940      H2944   1.083       .  S
C2945      C2950   1.384       .  A
C2945      C2946   1.406       .  A
C2945      S2951   1.718       .  A
C2946      C2947   1.409       .  A
C2946      H2957   1.083       .  S
C2947      C2956   1.375       .  A
C2947      C2948   1.385       .  A
C2948      C2949   1.408       .  A
C2948      S2954   1.722       .  A
C2949      C2950   1.410       .  A
C2949      H2958   1.083       .  S
C2950      C2953   1.376       .  A
S2951      C2952   1.729       .  A
C2952      C2953   1.397       .  A
C2953      H2959   1.083       .  S
S2954      C2955   1.726       .  A
C2955      C2956   1.394       .  A
C2956      H2960   1.083       .  S
C2961      C2966   1.386       .  A
C2961      C2962   1.399       .  A
C2961      S2967   1.711       .  A
C2962      C2963   1.403       .  A
C2962      H2973   1.083       .  S
C2963      C2972   1.365       .  A
C2963      C2964   1.384       .  A
C2964      C2965   1.409       .  A
C2964      S2970   1.725       .  A
C2965      C2966   1.412       .  A
C2965      H2974   1.083       .  S
C2966      C2969   1.376       .  A
S2967      C2968   1.723       .  A
C2968      C2969   1.395       .  A
C2969      H2975   1.083       .  S
S2970      C2971   1.727       .  A
C2971      C2972   1.391       .  A
C2972      H2976   1.083       .  S
C2977      C2982   1.381       .  A
C2977      C2978   1.411       .  A
C2977      S2983   1.724       .  A
C2978      C2979   1.414       .  A
C2978      H2989   1.083       .  S
C2979      C2988   1.380       .  A
C2979      C2980   1.385       .  A
C2980      C2981   1.405       .  A
C2980      S2986   1.718       .  A
C2981      C2982   1.408       .  A
C2981      H2990   1.083       .  S
C2982      C2985   1.373       .  A
S2983      C2984   1.735       .  A
C2984      C2985   1.401       .  A
C2985      H2991   1.082       .  S
S2986      C2987   1.723       .  A
C2987      C2988   1.396       .  A
C2988      H2992   1.083       .  S
C2993      C2998   1.385       .  A
C2993      C2994   1.402       .  A
C2993      S2999   1.714       .  A
C2994      C2995   1.406       .  A
C2994      H3005   1.083       .  S
C2995      C3004   1.368       .  A
C2995      C2996   1.384       .  A
C2996      C2997   1.410       .  A
C2996      S3002   1.727       .  A
C2997      C2998   1.413       .  A
C2997      H3006   1.083       .  S
C2998      C3001   1.377       .  A
S2999      C3000   1.725       .  A
C3000      C3001   1.395       .  A
C3001      H3007   1.083       .  S
S3002      C3003   1.729       .  A
C3003      C3004   1.395       .  A
C3004      H3008   1.083       .  S
C3009      C3014   1.385       .  A
C3009      C3010   1.403       .  A
C3009      S3015   1.716       .  A
C3010      C3011   1.407       .  A
C3010      H3021   1.083       .  S
C3011      C3020   1.370       .  A
C3011      C3012   1.382       .  A
C3012      C3013   1.416       .  A
C3012      S3018   1.735       .  A
C3013      C3014   1.419       .  A
C3013      H3022   1.082       .  S
C3014      C3017   1.384       .  A
S3015      C3016   1.726       .  A
C3016      C3017   1.400       .  A
C3017      H3023   1.083       .  S
S3018      C3019   1.732       .  A
C3019      C3020   1.397       .  A
C3020      H3024   1.083       .  S
C3025      C3030   1.384       .  A
C3025      C3026   1.404       .  A
C3025      S3031   1.717       .  A
C3026      C3027   1.407       .  A
C3026      H3037   1.083       .  S
C3027      C3036   1.370       .  A
C3027      C3028   1.385       .  A
C3028      C3029   1.404       .  A
C3028      S3034   1.718       .  A
C3029      C3030   1.408       .  A
C3029      H3038   1.083       .  S
C3030      C3033   1.370       .  A
S3031      C3032   1.728       .  A
C3032      C3033   1.397       .  A
C3033      H3039   1.083       .  S
S3034      C3035   1.724       .  A
C3035      C3036   1.391       .  A
C3036      H3040   1.083       .  S
C3041      C3046   1.384       .  A
C3041      C3042   1.401       .  A
C3041      S3047   1.707       .  A
C3042      C3043   1.403       .  A
C3042      H3053   1.083       .  S
C3043      C3052   1.370       .  A
C3043      C3044   1.384       .  A
C3044      C3045   1.413       .  A
C3044      S3050   1.725       .  A
C3045      C3046   1.414       .  A
C3045      H3054   1.083       .  S
C3046      C3049   1.382       .  A
S3047      C3048   1.725       .  A
C3048      C3049   1.398       .  A
C3049      H3055   1.083       .  S
S3050      C3051   1.730       .  A
C3051      C3052   1.390       .  A
C3052      H3056   1.084       .  S
C3057      C3062   1.383       .  A
C3057      C3058   1.412       .  A
C3057      S3063   1.729       .  A
C3058      C3059   1.415       .  A
C3058      H3069   1.083       .  S
C3059      C3068   1.376       .  A
C3059      C3060   1.383       .  A
C3060      C3061   1.395       .  A
C3060      S3066   1.705       .  A
C3061      C3062   1.399       .  A
C3061      H3070   1.083       .  S
C3062      C3065   1.359       .  A
S3063      C3064   1.730       .  A
C3064      C3065   1.390       .  A
C3065      H3071   1.083       .  S
S3066      C3067   1.720       .  A
C3067      C3068   1.402       .  A
C3068      H3072   1.083       .  S
C3073      C3078   1.385       .  A
C3073      C3074   1.404       .  A
C3073      S3079   1.717       .  A
C3074      C3075   1.407       .  A
C3074      H3085   1.083       .  S
C3075      C3084   1.368       .  A
C3075      C3076   1.384       .  A
C3076      C3077   1.406       .  A
C3076      S3082   1.722       .  A
C3077      C3078   1.409       .  A
C3077      H3086   1.083       .  S
C3078      C3081   1.373       .  A
S3079      C3080   1.727       .  A
C3080      C3081   1.393       .  A
C3081      H3087   1.083       .  S
S3082      C3083   1.725       .  A
C3083      C3084   1.395       .  A
C3084      H3088   1.083       .  S
C3089      C3094   1.384       .  A
C3089      C3090   1.402       .  A
C3089      S3095   1.714       .  A
C3090      C3091   1.405       .  A
C3090      H3101   1.083       .  S
C3091      C3100   1.368       .  A
C3091      C3092   1.385       .  A
C3092      C3093   1.404       .  A
C3092      S3098   1.717       .  A
C3093      C3094   1.407       .  A
C3093      H3102   1.083       .  S
C3094      C3097   1.369       .  A
S3095      C3096   1.726       .  A
C3096      C3097   1.394       .  A
C3097      H3103   1.083       .  S
S3098      C3099   1.723       .  A
C3099      C3100   1.389       .  A
C3100      H3104   1.083       .  S
C3105      C3110   1.385       .  A
C3105      C3106   1.403       .  A
C3105      S3111   1.713       .  A
C3106      C3107   1.405       .  A
C3106      H3117   1.083       .  S
C3107      C3116   1.370       .  A
C3107      C3108   1.384       .  A
C3108      C3109   1.407       .  A
C3108      S3114   1.719       .  A
C3109      C3110   1.410       .  A
C3109      H3118   1.083       .  S
C3110      C3113   1.376       .  A
S3111      C3112   1.723       .  A
C3112      C3113   1.391       .  A
C3113      H3119   1.083       .  S
S3114      C3115   1.729       .  A
C3115      C3116   1.394       .  A
C3116      H3120   1.083       .  S
C3121      C3126   1.384       .  A
C3121      C3122   1.399       .  A
C3121      S3127   1.711       .  A
C3122      C3123   1.402       .  A
C3122      H3133   1.083       .  S
C3123      C3132   1.366       .  A
C3123      C3124   1.383       .  A
C3124      C3125   1.415       .  A
C3124      S3130   1.731       .  A
C3125      C3126   1.418       .  A
C3125      H3134   1.083       .  S
C3126      C3129   1.382       .  A
S3127      C3128   1.724       .  A
C3128      C3129   1.402       .  A
C3129      H3135   1.083       .  S
S3130      C3131   1.732       .  A
C3131      C3132   1.392       .  A
C3132      H3136   1.083       .  S
C3137      C3142   1.384       .  A
C3137      C3138   1.406       .  A
C3137      S3143   1.718       .  A
C3138      C3139   1.409       .  A
C3138      H3149   1.083       .  S
C3139      C3148   1.374       .  A
C3139      C3140   1.386       .  A
C3140      C3141   1.402       .  A
C3140      S3146   1.714       .  A
C3141      C3142   1.405       .  A
C3141      H3150   1.083       .  S
C3142      C3145   1.368       .  A
S3143      C3144   1.729       .  A
C3144      C3145   1.394       .  A
C3145      H3151   1.083       .  S
S3146      C3147   1.721       .  A
C3147      C3148   1.390       .  A
C3148      H3152   1.083       .  S
C3153      C3158   1.384       .  A
C3153      C3154   1.408       .  A
C3153      S3159   1.721       .  A
C3154      C3155   1.412       .  A
C3154      H3165   1.083       .  S
C3155      C3164   1.376       .  A
C3155      C3156   1.384       .  A
C3156      C3157   1.410       .  A
C3156      S3162   1.727       .  A
C3157      C3158   1.413       .  A
C3157      H3166   1.083       .  S
C3158      C3161   1.378       .  A
S3159      C3160   1.730       .  A
C3160      C3161   1.398       .  A
C3161      H3167   1.083       .  S
S3162      C3163   1.728       .  A
C3163      C3164   1.397       .  A
C3164      H3168   1.083       .  S
