geometry optimzed in LAMMPS
_audit_creation_date              2020-11-30 
_audit_creation_method            'lammps2cif' 
_symmetry_space_group_name_H-M    'P1' 
_symmetry_Int_Tables_number       1 
_symmetry_cell_setting            triclinic 
loop_ 
_symmetry_equiv_pos_as_xyz 
  x,y,z 
_cell_length_a                    24.61476413 
_cell_length_b                    23.76914332436947 
_cell_length_c                    24.35641236702967 
_cell_angle_alpha                 91.88780573724793 
_cell_angle_beta                  93.04253693218409 
_cell_angle_gamma                 90.6936345417913 
loop_ 
_atom_site_label 
_atom_site_type_symbol 
_atom_site_fract_x 
_atom_site_fract_y 
_atom_site_fract_z 
_atom_site_charge 
O1          O  0.69960676  0.61294049  0.76739007    -0.81200
O2          O  0.71912900  0.86894184  0.74460654    -0.65900
O3          O  0.74877103  0.71262018  0.73726643    -1.12500
C4          C  0.79275722  0.74765169  0.93146000     1.05700
O5          O  0.79492296  0.89709820  0.79198083    -0.79100
O6          O  0.86762914  0.81323184  0.82963892    -0.66600
Ni7        Ni  0.69320800  0.66103099  0.70443062     1.34900
C8          C  0.88117016  0.76670457  0.80649591     0.84500
O9          O  0.71869506  0.79080081  0.65998979    -0.79600
O10         O  0.68905074  0.70291255  0.63568636    -0.89900
C11         C  0.75483846  0.90699178  0.75748523     0.84000
O12         O  0.62576595  0.69296362  0.73146302    -0.68100
O13         O  0.80084356  0.79964836  0.92116655    -0.87400
C14         C  0.61783245  0.74300929  0.74928958     0.84900
C15         C  0.70623161  0.75198805  0.62324613     1.06400
H16         H  0.71735241  0.78899355  0.83597018     0.38200
O17         O  0.75068835  0.78685480  0.81682079    -1.10000
O18         O  0.84714912  0.72495195  0.79815785    -0.66700
Ni19       Ni  0.77024378  0.70915428  0.81423121     1.26300
O20         O  0.65690817  0.77920634  0.75339536    -0.66900
O21         O  0.78786877  0.70901330  0.89286733    -0.79200
C22         C  0.74587262  0.59369733  0.78328753     0.84200
O23         O  0.78255109  0.62800944  0.80537944    -0.66400
Ni24       Ni  0.79869670  0.84314353  0.85342592     1.27400
Ni25       Ni  0.73277473  0.79011733  0.73943128     1.26100
H26         H  0.78072795  0.70761577  0.71633342     0.38800
O27         O  0.12065446  0.83038249  0.77687563    -0.81200
O28         O  0.36959096  0.79313804  0.77417474    -0.65900
O29         O  0.21701286  0.77397597  0.75219053    -1.12500
C30         C  0.22499764  0.71922619  0.93709155     1.05700
O31         O  0.39074159  0.72018931  0.82589501    -0.79100
O32         O  0.29878763  0.64791744  0.83288599    -0.66600
Ni33       Ni  0.17255582  0.82980958  0.71773988     1.34900
C34         C  0.25070377  0.63738412  0.81271400     0.84500
O35         O  0.30139169  0.79784533  0.68658682    -0.79600
O36         O  0.21957852  0.82923113  0.65515285    -0.89900
C37         C  0.40505625  0.76041754  0.79562380     0.84000
O38         O  0.20760378  0.89990141  0.74637564    -0.68100
O39         O  0.27425781  0.70442567  0.93029765    -0.87400
C40         C  0.25642980  0.91072417  0.76441076     0.84900
C41         C  0.26927038  0.81546634  0.64849662     1.06400
H42         H  0.28757249  0.80583002  0.85950938     0.38200
O43         O  0.28259155  0.77117258  0.83787764    -1.10000
O44         O  0.21397346  0.67568486  0.80967195    -0.66700
Ni45       Ni  0.20551353  0.75660654  0.82633916     1.26300
O46         O  0.29003498  0.87020819  0.77457513    -0.66900
O47         O  0.19559783  0.74214808  0.90022543    -0.79200
C48         C  0.09727418  0.78589534  0.79379403     0.84200
O49         O  0.12719685  0.74647345  0.81225449    -0.66400
Ni50       Ni  0.32758341  0.71410185  0.87379021     1.27400
Ni51       Ni  0.29298996  0.78651740  0.76242366     1.26100
H52         H  0.21152049  0.73988557  0.72976628     0.38800
C53         C  0.72657280  0.76420267  0.46349900     0.02900
C54         C  0.69719067  0.75952975  0.51324869    -0.13300
C55         C  0.72698471  0.76045771  0.56639920     0.00400
C56         C  0.78372680  0.76901330  0.56745984    -0.11800
C57         C  0.81068193  0.77179111  0.51900032     0.02800
C58         C  0.78245676  0.76660708  0.46844068    -0.11200
H59         H  0.65327009  0.75591867  0.51083136     0.08400
H60         H  0.80742171  0.77345646  0.60625630     0.06000
H61         H  0.80501638  0.77058424  0.43145386     0.05800
C62         C  0.03803536  0.77412331  0.77577397     0.02900
C63         C  0.98984435  0.77352496  0.80745098    -0.13300
C64         C  0.93622166  0.76397816  0.78029647     0.00400
C65         C  0.93300400  0.75955255  0.72250405    -0.11800
C66         C  0.97969289  0.76409127  0.69264728     0.02800
C67         C  0.03092112  0.76732278  0.71927477    -0.11200
H68         H  0.99388811  0.78116910  0.85148717     0.08400
H69         H  0.89357131  0.75781118  0.70035964     0.06000
H70         H  0.06632330  0.77042567  0.69459569     0.05800
C71         C  0.05857213  0.76032334  0.24874352     0.02900
C72         C  0.06338294  0.79720464  0.20578771    -0.13300
C73         C  0.01757558  0.82129593  0.17930455     0.00400
C74         C  0.96613435  0.80046224  0.19235201    -0.11800
C75         C  0.96008250  0.76407622  0.23621373     0.02800
C76         C  0.00683752  0.74265642  0.26356786    -0.11200
H77         H  0.10394221  0.81155072  0.19774637     0.08400
H78         H  0.92996809  0.81659322  0.17143235     0.06000
H79         H  0.00327995  0.71460952  0.29707966     0.05800
O80         O  0.04813113  0.96176184  0.34253681    -0.74700
O81         O  0.03794254  0.90749775  0.48782082    -0.74700
O82         O  0.11783559  0.95946744  0.43507659    -0.74800
O83         O  0.97250156  0.91078505  0.39859481    -0.74800
O84         O  0.00188076  0.82695877  0.37269657    -0.74800
O85         O  0.14798227  0.87632537  0.40844840    -0.74700
O86         O  0.06887396  0.82452872  0.45966347    -0.74700
O87         O  0.07867158  0.87940064  0.31528676    -0.74800
Ni88       Ni  0.04372200  0.93844897  0.41657024     1.25400
Ni89       Ni  0.07609853  0.84921163  0.38711639     1.25400
C90         C  0.06153880  0.92811253  0.30435806     0.87500
C91         C  0.04706578  0.85530085  0.49608605     0.87400
C92         C  0.15615153  0.92437962  0.43245756     0.87400
C93         C  0.96561721  0.85753335  0.39392742     0.87600
C94         C  0.30948719  0.80568828  0.49876367     0.02900
C95         C  0.35440304  0.84232011  0.50626708    -0.13300
C96         C  0.34777247  0.88731485  0.54407269     0.00400
C97         C  0.33444466  0.86806119  0.59555337    -0.11800
C98         C  0.29426950  0.82522255  0.59596981     0.02800
C99         C  0.27833855  0.79660330  0.54540401    -0.11200
H100        H  0.38003924  0.84768909  0.47225216     0.08400
H101        H  0.34226188  0.89519259  0.63185872     0.06000
H102        H  0.24299977  0.76888054  0.54231058     0.05800
O103        O  0.36994645  0.67432921  0.28288090    -0.81200
O104        O  0.13750652  0.70871148  0.27045044    -0.65900
O105        O  0.28633590  0.73700385  0.25280237    -1.12500
C106        C  0.28761753  0.79432796  0.44148711     1.05700
O107        O  0.12839786  0.79120991  0.31208139    -0.79100
O108        O  0.21371473  0.86253740  0.32734855    -0.66600
Ni109      Ni  0.32643092  0.68043043  0.21651725     1.34900
C110        C  0.25825318  0.87255700  0.30490361     0.84500
O111        O  0.20024011  0.70268850  0.18515360    -0.79600
O112        O  0.28210210  0.69042743  0.14966762    -0.89900
C113        C  0.10895312  0.75053523  0.28187400     0.84000
O114        O  0.28792571  0.61172745  0.23236107    -0.68100
O115        O  0.23841481  0.80798880  0.43013838    -0.87400
C116        C  0.24739597  0.60493627  0.26164219     0.84900
C117        C  0.23110689  0.70050868  0.14458859     1.06400
H118        H  0.22587313  0.71076597  0.35871275     0.38200
O119        O  0.22896779  0.74326827  0.33621512    -1.10000
O120        O  0.29763217  0.83726035  0.30733578    -0.66700
Ni121      Ni  0.30443511  0.75735506  0.32836034     1.26300
O122        O  0.22098380  0.64585534  0.28023372    -0.66900
O123        O  0.31939153  0.77619177  0.40524977    -0.79200
C124        C  0.40082938  0.71651721  0.29485475     0.84200
O125        O  0.38084675  0.76077909  0.31641865    -0.66400
Ni126      Ni  0.18635433  0.79953271  0.36805567     1.27400
Ni127      Ni  0.21267554  0.72200846  0.26107059     1.26100
H128        H  0.28881313  0.77010144  0.23107162     0.38800
O129        O  0.80431080  0.62398032  0.28956144    -0.81200
O130        O  0.79259119  0.87441815  0.24562005    -0.65900
O131        O  0.78935916  0.72626083  0.28294841    -1.12500
C132        C  0.60117909  0.75772508  0.29385061     1.05700
O133        O  0.74443286  0.89863445  0.31731217    -0.79100
O134        O  0.69568047  0.82127441  0.38872075    -0.66600
Ni135      Ni  0.81841726  0.67421088  0.23255913     1.34900
C136        C  0.70736259  0.77171644  0.40428032     0.84500
O137        O  0.87012621  0.79398449  0.24991131    -0.79600
O138        O  0.88894800  0.70150889  0.26089722    -0.89900
C139        C  0.76617476  0.91030433  0.27217724     0.84000
O140        O  0.83126800  0.72055830  0.17030739    -0.68100
O141        O  0.61230326  0.80873296  0.30919435    -0.87400
C142        C  0.79632175  0.75303008  0.14991145     0.84900
C143        C  0.90395313  0.75260176  0.25271606     1.06400
H144        H  0.69600376  0.79977960  0.23681655     0.38200
O145        O  0.71493460  0.79746600  0.27242626    -1.10000
O146        O  0.71718059  0.73176441  0.36956873    -0.66700
Ni147      Ni  0.71289886  0.72103989  0.28938726     1.26300
O148        O  0.77165525  0.78501386  0.18273750    -0.66900
O149        O  0.63592355  0.71870862  0.28980416    -0.79200
C150        C  0.75487432  0.60833659  0.29444553     0.84200
O151        O  0.71546793  0.64220754  0.30009054    -0.66400
Ni152      Ni  0.67953641  0.85163073  0.31620979     1.27400
Ni153      Ni  0.79233087  0.79934361  0.26166628     1.26100
H154        H  0.80768265  0.72438051  0.31897096     0.38800
C155        C  0.78261111  0.72950316  0.98991583     0.02900
C156        C  0.75922528  0.67574443  0.99274305    -0.13300
C157        C  0.74473316  0.65322176  0.04202569     0.00400
C158        C  0.74660532  0.68677499  0.08963807    -0.11800
C159        C  0.77474881  0.73837779  0.09213099     0.02800
C160        C  0.79279801  0.76076246  0.04147258    -0.11200
H161        H  0.75554079  0.64836591  0.95628736     0.08400
H162        H  0.73530062  0.66775602  0.12740064     0.06000
H163        H  0.81524761  0.80023567  0.04242934     0.05800
C164        C  0.76058434  0.53390321  0.76706825     0.02900
C165        C  0.80675673  0.52760357  0.73605268    -0.13300
C166        C  0.82879243  0.47426753  0.72433348     0.00400
C167        C  0.79813149  0.42637952  0.73620257    -0.11800
C168        C  0.75296286  0.42942726  0.76826005     0.02800
C169        C  0.73257105  0.48398509  0.78230147    -0.11200
H170        H  0.82891272  0.56505700  0.72551770     0.08400
H171        H  0.81355127  0.38514936  0.72689586     0.06000
H172        H  0.69720411  0.48765110  0.80648872     0.05800
C173        C  0.73935453  0.23875562  0.99198298     0.02900
C174        C  0.78732015  0.20865226  0.99938988    -0.13300
C175        C  0.81241214  0.20019377  0.05125816     0.00400
C176        C  0.78574065  0.21548318  0.09776383    -0.11800
C177        C  0.73580258  0.24258667  0.09429733     0.02800
C178        C  0.71151378  0.25457764  0.04065932    -0.11200
H179        H  0.80823492  0.19557171  0.96323833     0.08400
H180        H  0.80409795  0.20539734  0.13752812     0.06000
H181        H  0.67338255  0.27668936  0.03716781     0.05800
O182        O  0.81837692  0.33431905  0.01453947    -0.74700
O183        O  0.87155211  0.36260402  0.87339659    -0.74700
O184        O  0.88576050  0.27474251  0.94727073    -0.74800
O185        O  0.80604522  0.41326776  0.94381048    -0.74800
O186        O  0.88069144  0.45819018  0.97845535    -0.74800
O187        O  0.95621861  0.32062050  0.98908718    -0.74700
O188        O  0.94629096  0.40281090  0.91210549    -0.74700
O189        O  0.88898747  0.38237975  0.05335377    -0.74800
Ni190      Ni  0.84360564  0.34353463  0.94246504     1.25400
Ni191      Ni  0.92125071  0.39174842  0.98414961     1.25400
C192        C  0.83969206  0.36465775  0.05462949     0.87500
C193        C  0.91480972  0.39197013  0.86976598     0.87400
C194        C  0.93251343  0.27417215  0.97341149     0.87400
C195        C  0.82928005  0.45649249  0.96758026     0.87600
C196        C  0.73793126  0.55379815  0.27267225     0.02900
C197        C  0.73300420  0.50706198  0.30536970    -0.13300
C198        C  0.70756469  0.45888031  0.28103425     0.00400
C199        C  0.67898750  0.46384271  0.22943945    -0.11800
C200        C  0.70334511  0.49853803  0.19285143     0.02800
C201        C  0.72450777  0.54923376  0.21573610    -0.11200
H202        H  0.75196917  0.50694286  0.34653250     0.08400
H203        H  0.65644985  0.42777599  0.21122564     0.06000
H204        H  0.73623544  0.58222452  0.18899830     0.05800
O205        O  0.76450197  0.39402129  0.33166036    -0.81200
O206        O  0.80285735  0.13511059  0.29004732    -0.65900
O207        O  0.79510880  0.29371542  0.28140006    -1.12500
C208        C  0.60327686  0.24227488  0.24218389     1.05700
O209        O  0.76060028  0.14758710  0.21011332    -0.79100
O210        O  0.68024431  0.21015778  0.16247116    -0.66600
Ni211      Ni  0.82991966  0.34655182  0.33291629     1.34900
C212        C  0.71166129  0.24893518  0.14924193     0.84500
O213        O  0.87982575  0.21871387  0.30151511    -0.79600
O214        O  0.90134726  0.30676568  0.33181907    -0.89900
C215        C  0.78527032  0.11528679  0.24288094     0.84000
O216        O  0.80577173  0.31255270  0.39902019    -0.68100
O217        O  0.61906684  0.19161897  0.24734434    -0.87400
C218        C  0.78909951  0.26283078  0.40771882     0.84900
C219        C  0.91541259  0.25780859  0.31334176     1.06400
H220        H  0.70594430  0.21146134  0.31482064     0.38200
O221        O  0.72284517  0.21666678  0.28065708    -1.10000
O222        O  0.73375297  0.28182924  0.18664613    -0.66700
Ni223      Ni  0.71702600  0.29104902  0.26447695     1.26300
O224        O  0.79163716  0.22203721  0.37154613    -0.66900
O225        O  0.63707015  0.28482915  0.24563257    -0.79200
C226        C  0.72975447  0.40307211  0.29147434     0.84200
O227        O  0.71592953  0.36627738  0.25467372    -0.66400
Ni228      Ni  0.68921662  0.16699785  0.22811899     1.27400
Ni229      Ni  0.80131744  0.21619094  0.29202340     1.26100
H230        H  0.81255470  0.30057286  0.24759421     0.38800
O231        O  0.86990641  0.19607272  0.77271845    -0.81200
O232        O  0.62864349  0.24184795  0.72908049    -0.65900
O233        O  0.78256192  0.25739474  0.74375208    -1.12500
C234        C  0.72802068  0.25652276  0.93289186     1.05700
O235        O  0.60714932  0.28088969  0.81265270    -0.79100
O236        O  0.68761019  0.35618354  0.78853986    -0.66600
Ni237      Ni  0.83259667  0.21440909  0.70555352     1.34900
C238        C  0.73650469  0.37446491  0.79261800     0.84500
O239        O  0.71002504  0.24576496  0.65116883    -0.79600
O240        O  0.79863037  0.23293262  0.63482728    -0.89900
C241        C  0.59422678  0.26190077  0.76317734     0.84000
O242        O  0.79609981  0.14214376  0.70604861    -0.68100
O243        O  0.67938741  0.26296068  0.91159726    -0.87400
C244        C  0.74887933  0.12531404  0.71760358     0.84900
C245        C  0.74967135  0.24293964  0.61820317     1.06400
H246        H  0.69759773  0.21005073  0.82335357     0.38200
O247        O  0.70797855  0.24610464  0.80963894    -1.10000
O248        O  0.77400261  0.34432015  0.81665209    -0.66700
Ni249      Ni  0.78120025  0.26065372  0.82292103     1.26300
O250        O  0.71101794  0.16041456  0.72950851    -0.66900
O251        O  0.77068007  0.26341556  0.90350878    -0.79200
C252        C  0.88986274  0.22903914  0.81114865     0.84200
O253        O  0.86031362  0.26660033  0.83298247    -0.66400
Ni254      Ni  0.67708213  0.30658263  0.84630242     1.27400
Ni255      Ni  0.70721860  0.24466691  0.73187461     1.26100
H256        H  0.78918766  0.29488494  0.73150527     0.38800
C257        C  0.74987218  0.95972126  0.72385793     0.02900
C258        C  0.75410063  0.01781707  0.74307139    -0.13300
C259        C  0.73713406  0.06255587  0.70736761     0.00400
C260        C  0.71650638  0.04713925  0.65403224    -0.11800
C261        C  0.71527844  0.99097460  0.63421168     0.02800
C262        C  0.73316079  0.94868550  0.66841595    -0.11200
H263        H  0.76924694  0.02792924  0.78479125     0.08400
H264        H  0.70265835  0.07965408  0.62671380     0.06000
H265        H  0.73271373  0.90586431  0.65165507     0.05800
C266        C  0.46413751  0.77635117  0.78582839     0.02900
C267        C  0.51184572  0.74145768  0.77824037    -0.13300
C268        C  0.56159309  0.76689069  0.75954529     0.00400
C269        C  0.55895846  0.82312790  0.74492751    -0.11800
C270        C  0.51346858  0.85484293  0.75120249     0.02800
C271        C  0.46944375  0.83402230  0.77624154    -0.11200
H272        H  0.51003802  0.69685638  0.78556571     0.08400
H273        H  0.59176813  0.84263818  0.72390663     0.06000
H274        H  0.43605847  0.86278556  0.78142379     0.05800
C275        C  0.27651948  0.97297480  0.77188705     0.02900
C276        C  0.24324312  0.02295707  0.76440795    -0.13300
C277        C  0.26705055  0.07921591  0.77182099     0.00400
C278        C  0.32162208  0.08247905  0.79059362    -0.11800
C279        C  0.35593152  0.03789854  0.78053569     0.02800
C280        C  0.33351272  0.98275014  0.77785361    -0.11200
H281        H  0.20064511  0.01814112  0.75153844     0.08400
H282        H  0.34019045  0.12357944  0.79863535     0.06000
H283        H  0.36086835  0.94786569  0.77242845     0.05800
O284        O  0.62840973  0.09119263  0.52108861    -0.74700
O285        O  0.52766534  0.15046335  0.62230984    -0.74700
O286        O  0.57977266  0.05697605  0.60776998    -0.74800
O287        O  0.57654219  0.19442148  0.53486041    -0.74800
O288        O  0.50967605  0.16319731  0.47631180    -0.74800
O289        O  0.50839910  0.02614877  0.55485458    -0.74700
O290        O  0.46004151  0.12476630  0.56268903    -0.74700
O291        O  0.55975793  0.05652501  0.46688012    -0.74800
Ni292      Ni  0.58121605  0.12548652  0.57232248     1.25400
Ni293      Ni  0.50746606  0.09199553  0.51190211     1.25400
C294        C  0.60928512  0.05415757  0.48544112     0.87500
C295        C  0.47800142  0.13458577  0.61217551     0.87400
C296        C  0.54018993  0.02277875  0.59798122     0.87400
C297        C  0.53749952  0.20408421  0.49996813     0.87600
C298        C  0.44293893  0.29946194  0.74758819     0.02900
C299        C  0.49197319  0.27929057  0.77231391    -0.13300
C300        C  0.53799647  0.27195765  0.74022303     0.00400
C301        C  0.53320290  0.28312552  0.68401320    -0.11800
C302        C  0.48674119  0.30711282  0.65941328     0.02800
C303        C  0.44214069  0.31614281  0.69226372    -0.11200
H304        H  0.49385916  0.26808012  0.81509804     0.08400
H305        H  0.56744105  0.27483028  0.65896624     0.06000
H306        H  0.40563114  0.33480462  0.67500218     0.05800
O307        O  0.37373358  0.32625138  0.81185496    -0.81200
O308        O  0.12552133  0.28945307  0.82691613    -0.65900
O309        O  0.27926351  0.26591010  0.81847280    -1.12500
C310        C  0.24763362  0.22466829  0.63556756     1.05700
O311        O  0.10896888  0.21640962  0.76709042    -0.79100
O312        O  0.19265019  0.14485769  0.74792040    -0.66600
Ni313      Ni  0.29819844  0.33567835  0.83385569     1.34900
C314        C  0.24354144  0.13646985  0.75491602     0.84500
O315        O  0.21500265  0.29885512  0.90095527    -0.79600
O316        O  0.30449244  0.31630901  0.91058810    -0.89900
C317        C  0.09515167  0.24807347  0.80715958     0.84000
O318        O  0.29653365  0.41202495  0.84291258    -0.68100
O319        O  0.20484967  0.19975061  0.64990885    -0.87400
C320        C  0.24821082  0.41646951  0.82061853     0.84900
C321        C  0.26035697  0.29732424  0.92968964     1.06400
H322        H  0.19296802  0.30313541  0.72653874     0.38200
O323        O  0.20259911  0.26907011  0.74510323    -1.10000
O324        O  0.27793816  0.17682999  0.74799721    -0.66700
Ni325      Ni  0.27862418  0.25955038  0.74322836     1.26300
O326        O  0.21569520  0.37115265  0.81160118    -0.66900
O327        O  0.27728819  0.25645981  0.66685251    -0.79200
C328        C  0.38877722  0.29372056  0.77170931     0.84200
O329        O  0.35598927  0.25915884  0.74503042    -0.66400
Ni330      Ni  0.15932211  0.20908483  0.71140942     1.27400
Ni331      Ni  0.20506774  0.28459772  0.82308009     1.26100
H332        H  0.29343837  0.23556400  0.84029369     0.38800
C333        C  0.19924080  0.71279674  0.99047748     0.02900
C334        C  0.14226631  0.72000780  0.99207753    -0.13300
C335        C  0.11681368  0.72748092  0.04213044     0.00400
C336        C  0.15045710  0.73073171  0.08967842    -0.11800
C337        C  0.20421889  0.71130109  0.09027158     0.02800
C338        C  0.22961630  0.70436106  0.04011096    -0.11200
H339        H  0.11804760  0.72001386  0.95385859     0.08400
H340        H  0.13342227  0.74528593  0.12735808     0.06000
H341        H  0.27250862  0.69479383  0.03984843     0.05800
C342        C  0.23449251  0.57808951  0.79215447     0.02900
C343        C  0.25585199  0.52689246  0.81404721    -0.13300
C344        C  0.22918142  0.47356839  0.80066452     0.00400
C345        C  0.18022997  0.47420889  0.76856679    -0.11800
C346        C  0.15660123  0.52465854  0.75087321     0.02800
C347        C  0.18905873  0.57371654  0.75505022    -0.11200
H348        H  0.29117531  0.52875730  0.84249278     0.08400
H349        H  0.15790378  0.43514965  0.76196852     0.06000
H350        H  0.17365995  0.61161992  0.73675402     0.05800
C351        C  0.25827377  0.26445100  0.98069145     0.02900
C352        C  0.21531610  0.22459321  0.97953981    -0.13300
C353        C  0.19066669  0.21612145  0.02833014     0.00400
C354        C  0.22696191  0.20705861  0.07193907    -0.11800
C355        C  0.27446382  0.24132954  0.07747517     0.02800
C356        C  0.28913817  0.27340219  0.03148484    -0.11200
H357        H  0.19138310  0.21506963  0.94173105     0.08400
H358        H  0.20953671  0.18972645  0.10780697     0.06000
H359        H  0.32091407  0.30535124  0.03586889     0.05800
O360        O  0.07890309  0.54097872  0.94287897    -0.74700
O361        O  0.05732513  0.52632680  0.09555762    -0.74700
O362        O  0.10240706  0.46288993  0.01784348    -0.74800
O363        O  0.03370799  0.60362558  0.02012584    -0.74800
O364        O  0.95163138  0.56426126  0.00335119    -0.74800
O365        O  0.02195962  0.42047189  0.00025130    -0.74700
O366        O  0.97638215  0.48430085  0.07761098    -0.74700
O367        O  0.99882230  0.49860025  0.92440669    -0.74800
Ni368      Ni  0.07078832  0.53503761  0.01971005     1.25400
Ni369      Ni  0.98411850  0.49053748  0.00016372     1.25400
C370        C  0.04180776  0.52197762  0.90840512     0.87500
C371        C  0.01475258  0.50156306  0.11166047     0.87400
C372        C  0.07326032  0.41819885  0.01138378     0.87400
C373        C  0.98195325  0.60769243  0.01448980     0.87600
C374        C  0.22507438  0.54856402  0.27261527     0.02900
C375        C  0.25657536  0.50207465  0.28830435    -0.13300
C376        C  0.23026219  0.45230882  0.30405540     0.00400
C377        C  0.17297524  0.45001992  0.30371841    -0.11800
C378        C  0.14153420  0.49387262  0.28319700     0.02800
C379        C  0.16824096  0.54295289  0.26840628    -0.11200
H380        H  0.30055549  0.50475945  0.28892744     0.08400
H381        H  0.15240302  0.41166728  0.31440682     0.06000
H382        H  0.14487506  0.57664892  0.25033025     0.05800
C383        C  0.54766776  0.74476669  0.26817995     0.02900
C384        C  0.54491809  0.73891755  0.21068478    -0.13300
C385        C  0.49666949  0.72186977  0.18164789     0.00400
C386        C  0.45242226  0.70681206  0.21192119    -0.11800
C387        C  0.45277757  0.71928437  0.26879698     0.02800
C388        C  0.50078447  0.73822205  0.29742001    -0.11200
H389        H  0.58049479  0.74984217  0.18865349     0.08400
H390        H  0.41580241  0.69012366  0.19045164     0.06000
H391        H  0.50190101  0.74631913  0.34150204     0.05800
C392        C  0.78395104  0.05589826  0.22550025     0.02900
C393        C  0.77667167  0.01335732  0.26272303    -0.13300
C394        C  0.75593596  0.96136004  0.24261120     0.00400
C395        C  0.73827654  0.95382841  0.18662901    -0.11800
C396        C  0.74786707  0.99530213  0.14879293     0.02800
C397        C  0.77514410  0.04418560  0.16847731    -0.11200
H398        H  0.78705666  0.02036178  0.30618475     0.08400
H399        H  0.71974096  0.91403734  0.17222245     0.06000
H400        H  0.78461699  0.07610700  0.13958468     0.05800
C401        C  0.26889154  0.02839586  0.25405986     0.02900
C402        C  0.25807612  0.98264204  0.28888433    -0.13300
C403        C  0.26255192  0.92483214  0.26982082     0.00400
C404        C  0.26768682  0.91512842  0.21290824    -0.11800
C405        C  0.27415336  0.95970905  0.17636978     0.02800
C406        C  0.28031059  0.01472268  0.19954359    -0.11200
H407        H  0.24712930  0.99309151  0.32993284     0.08400
H408        H  0.26640125  0.87192828  0.19784408     0.06000
H409        H  0.29374387  0.04828995  0.17475583     0.05800
O410        O  0.51645102  0.87143092  0.05102314    -0.74700
O411        O  0.50148297  0.02839159  0.04064761    -0.74700
O412        O  0.43214811  0.94254043  0.05304608    -0.74800
O413        O  0.58398308  0.95692304  0.03906227    -0.74800
O414        O  0.57380425  0.94720121  0.94756146    -0.74800
O415        O  0.41757785  0.93405227  0.96190819    -0.74700
O416        O  0.48865592  0.02087598  0.94920693    -0.74700
O417        O  0.50140743  0.85914998  0.96015285    -0.74800
Ni418      Ni  0.50903220  0.95008090  0.04877667     1.25400
Ni419      Ni  0.49524280  0.93972266  0.95100999     1.25400
C420        C  0.50940632  0.83919527  0.00825580     0.87500
C421        C  0.49131668  0.05060756  0.99422335     0.87400
C422        C  0.39952983  0.93706240  0.01047520     0.87400
C423        C  0.60404553  0.95534322  0.99183745     0.87600
C424        C  0.54667554  0.24811846  0.21771534     0.02900
C425        C  0.49979280  0.26072120  0.24769352    -0.13300
C426        C  0.44745735  0.25851706  0.21967713     0.00400
C427        C  0.44359147  0.24677578  0.16297075    -0.11800
C428        C  0.48730663  0.22572559  0.13535912     0.02800
C429        C  0.53906635  0.22876253  0.16239144    -0.11200
H430        H  0.50379580  0.27049651  0.29145011     0.08400
H431        H  0.40452621  0.24936434  0.14072660     0.06000
H432        H  0.57357783  0.21265904  0.14132229     0.05800
C433        C  0.75720088  0.25193849  0.45794019     0.02900
C434        C  0.70947941  0.22010010  0.44680579    -0.13300
C435        C  0.69776764  0.18061800  0.48526462     0.00400
C436        C  0.69481012  0.20504149  0.53813771    -0.11800
C437        C  0.73693491  0.24268474  0.55683667     0.02800
C438        C  0.77169558  0.26419270  0.51551749    -0.11200
H439        H  0.69408902  0.21292904  0.40495827     0.08400
H440        H  0.67447493  0.18125767  0.56841438     0.06000
H441        H  0.80874008  0.28735939  0.52766521     0.05800
C442        C  0.94549284  0.21383557  0.83323662     0.02900
C443        C  0.99313678  0.24970970  0.83293385    -0.13300
C444        C  0.04588650  0.22451631  0.83294552     0.00400
C445        C  0.04755298  0.16484911  0.83347308    -0.11800
C446        C  0.00203380  0.13438656  0.81340472     0.02800
C447        C  0.95322095  0.15502821  0.83070007    -0.11200
H448        H  0.98912547  0.29408137  0.82564731     0.08400
H449        H  0.08628957  0.14402669  0.82988663     0.06000
H450        H  0.91826413  0.12678682  0.82472814     0.05800
C451        C  0.97327085  0.24534894  0.29477533     0.02900
C452        C  0.97320846  0.21273172  0.24547252    -0.13300
C453        C  0.02025529  0.18799870  0.22613641     0.00400
C454        C  0.06998933  0.21267402  0.24458332    -0.11800
C455        C  0.07532478  0.23961326  0.29667783     0.02800
C456        C  0.02596382  0.25648954  0.32272496    -0.11200
H457        H  0.93469044  0.19883005  0.22635161     0.08400
H458        H  0.10650212  0.19814572  0.22576211     0.06000
H459        H  0.02843152  0.27528960  0.36384600     0.05800
O460        O  0.00219029  0.03521301  0.39630142    -0.74700
O461        O  0.99573411  0.04622065  0.55367110    -0.74700
O462        O  0.92220245  0.04229996  0.46735817    -0.74800
O463        O  0.07620478  0.03773946  0.48515216    -0.74800
O464        O  0.08387718  0.13033488  0.47684129    -0.74800
O465        O  0.92804626  0.13603859  0.46423958    -0.74700
O466        O  0.00460507  0.13904369  0.54794384    -0.74700
O467        O  0.00793183  0.12833864  0.39181279    -0.74800
Ni468      Ni  0.99906668  0.03694320  0.47526661     1.25400
Ni469      Ni  0.00614544  0.13682790  0.46989565     1.25400
C470        C  0.00620937  0.07956198  0.36821046     0.87500
C471        C  0.99926417  0.09544889  0.57672142     0.87400
C472        C  0.89990767  0.09032009  0.46519659     0.87400
C473        C  0.10533082  0.08238692  0.48515606     0.87600
C474        C  0.27414360  0.21743312  0.48606740     0.02900
C475        C  0.24842705  0.23275687  0.53413603    -0.13300
C476        C  0.26893942  0.21015426  0.58356884     0.00400
C477        C  0.31013777  0.16965426  0.58295114    -0.11800
C478        C  0.31564242  0.14074595  0.53287047     0.02800
C479        C  0.31645942  0.17819472  0.48959610    -0.11200
H480        H  0.21396625  0.26068630  0.53319288     0.08400
H481        H  0.32314081  0.14994373  0.62090063     0.06000
H482        H  0.33806705  0.16757340  0.45337553     0.05800
O483        O  0.30381985  0.38867895  0.29068266    -0.81200
O484        O  0.29267439  0.12734547  0.24273743    -0.65900
O485        O  0.26258206  0.28610748  0.25272898    -1.12500
C486        C  0.25007941  0.22668687  0.43131916     1.05700
O487        O  0.23345649  0.10759240  0.30780369    -0.79100
O488        O  0.14276816  0.18033957  0.33678214    -0.66600
Ni489      Ni  0.30491456  0.34413958  0.22302661     1.34900
C490        C  0.13169387  0.23077179  0.32326038     0.84500
O491        O  0.28541333  0.21277296  0.16762255    -0.79600
O492        O  0.30459846  0.30406068  0.15178549    -0.89900
C493        C  0.26559275  0.09110529  0.27014435     0.84000
O494        O  0.37568302  0.31649706  0.24431134    -0.68100
O495        O  0.23308417  0.18287126  0.40364910    -0.87400
C496        C  0.39360612  0.26657020  0.24360011     0.84900
C497        C  0.29231472  0.25340290  0.13545214     1.06400
H498        H  0.31243891  0.19707267  0.34286046     0.38200
O499        O  0.28176130  0.20974381  0.32009110    -1.10000
O500        O  0.17170713  0.26771371  0.31830562    -0.66700
Ni501      Ni  0.25551020  0.28388913  0.33088800     1.26300
O502        O  0.36303059  0.22279739  0.24779055    -0.66900
O503        O  0.25327086  0.27497136  0.40962461    -0.79200
C504        C  0.25923993  0.39896317  0.31315745     0.84200
O505        O  0.23469487  0.36015087  0.33706849    -0.66400
Ni506      Ni  0.21563814  0.18578389  0.32785276     1.27400
Ni507      Ni  0.28427610  0.20947213  0.24471639     1.26100
H508        H  0.22650659  0.28867598  0.23537767     0.38800
C509        C  0.24019181  0.07977720  0.56519891    -0.09400
C510        C  0.27570415  0.09188628  0.52308551     0.06800
C511        C  0.25658528  0.07684766  0.46886225    -0.03200
C512        C  0.20051854  0.07283955  0.45660417    -0.07700
C513        C  0.16393822  0.07834769  0.49841935     0.05900
C514        C  0.18413800  0.07781332  0.55337805    -0.02700
Br515      Br  0.13734001  0.08087825  0.61378822    -0.02400
H516        H  0.25431158  0.08296228  0.60805809     0.09800
H517        H  0.18591171  0.06765897  0.41449327     0.07800
Br518      Br  0.30472378  0.06951810  0.40974751    -0.02800
C519        C  0.06332570  0.09595719  0.22979248    -0.09400
C520        C  0.01831853  0.12595895  0.20877870     0.06800
C521        C  0.96917921  0.09811290  0.21875942    -0.03200
C522        C  0.96265693  0.08198455  0.27310065    -0.07700
C523        C  0.00964217  0.07575872  0.30785661     0.05900
C524        C  0.06044653  0.07608021  0.28325678    -0.02700
Br525      Br  0.12565431  0.05284755  0.32051165    -0.02400
H526        H  0.10283763  0.10132550  0.21296802     0.08000
H527        H  0.92240694  0.07581197  0.28797751     0.07800
Br528      Br  0.90933560  0.09808712  0.16574076    -0.02800
C529        C  0.01009561  0.05860035  0.67257211    -0.09400
C530        C  0.99747103  0.10317143  0.63725233     0.06800
C531        C  0.98462540  0.15601519  0.66078093    -0.03200
C532        C  0.98815759  0.16433132  0.71725844    -0.07700
C533        C  0.00105820  0.12064851  0.75307032     0.05900
C534        C  0.01168353  0.06704356  0.73023278    -0.02700
Br535      Br  0.02814152  0.00494995  0.77610059    -0.02400
H536        H  0.01943511  0.01743571  0.65542212     0.09800
H537        H  0.97956574  0.20597976  0.73298112     0.07800
Br538      Br  0.95744028  0.21885863  0.61998848    -0.02800
C539        C  0.80565997  0.09523766  0.42366680    -0.09400
C540        C  0.84142986  0.09386942  0.47015608     0.06800
C541        C  0.82121032  0.10010376  0.52254575    -0.03200
C542        C  0.76856320  0.11837990  0.52788453    -0.07700
C543        C  0.73498638  0.13095230  0.48125907     0.05900
C544        C  0.75139171  0.11072467  0.42937432    -0.02700
Br545      Br  0.70088503  0.10402403  0.36649211    -0.02400
H546        H  0.82010701  0.08526930  0.38338557     0.09800
H547        H  0.75628376  0.12750943  0.56905611     0.07800
Br548      Br  0.86371484  0.08582602  0.58858983    -0.02800
C549        C  0.43023869  0.11882132  0.02679266    -0.09400
C550        C  0.47640357  0.11015415  0.99695821     0.06800
C551        C  0.51752277  0.15173415  0.00060979    -0.03200
C552        C  0.51730139  0.19407873  0.04219056    -0.07700
C553        C  0.47759029  0.19345155  0.08188679     0.05900
C554        C  0.43262894  0.15548925  0.07259007    -0.02700
Br555      Br  0.38150709  0.13688743  0.12654377    -0.02400
H556        H  0.39828470  0.08705605  0.02370934     0.09800
H557        H  0.55091760  0.22399111  0.04646984     0.07800
Br558      Br  0.57741830  0.14765539  0.95380780    -0.02800
C559        C  0.31751699  0.98849657  0.03309985    -0.09400
C560        C  0.34074720  0.93664034  0.02017596     0.06800
C561        C  0.31862696  0.88927670  0.04387414    -0.03200
C562        C  0.29228572  0.89525200  0.09330812    -0.07700
C563        C  0.28185591  0.94945280  0.11545809     0.05900
C564        C  0.28456400  0.99412633  0.07812879    -0.02700
Br565      Br  0.23834809  0.05876311  0.08051099    -0.02400
H566        H  0.32667713  0.02490712  0.00962552     0.09800
H567        H  0.28044116  0.85748791  0.11320047     0.07800
Br568      Br  0.31323952  0.81966478  0.00290185    -0.02800
C569        C  0.67320009  0.02361396  0.01109272    -0.09400
C570        C  0.66249334  0.96841639  0.99213859     0.06800
C571        C  0.69747122  0.92680236  0.01211895    -0.03200
C572        C  0.72887458  0.93660093  0.06148887    -0.07700
C573        C  0.72667033  0.98902351  0.09005108     0.05900
C574        C  0.69950988  0.03336736  0.06279479    -0.02700
Br575      Br  0.68136238  0.10272652  0.09823358    -0.02400
H576        H  0.64806687  0.05669577  0.99442282     0.09800
H577        H  0.75191412  0.90241666  0.07906593     0.07800
Br578      Br  0.69688508  0.85479637  0.97568882    -0.02800
C579        C  0.44879753  0.77374824  0.04219024    -0.09400
C580        C  0.49921556  0.77985395  0.01942590     0.06800
C581        C  0.54209763  0.74687059  0.03999993    -0.03200
C582        C  0.53710391  0.71915363  0.08942359    -0.07700
C583        C  0.49128716  0.72818394  0.12087568     0.05900
C584        C  0.44568311  0.75470569  0.09546400    -0.02700
Br585      Br  0.38512598  0.78327008  0.13437177    -0.02400
H586        H  0.41638614  0.79947772  0.02657611     0.09800
H587        H  0.57182069  0.69676423  0.10643831     0.07800
Br588      Br  0.61044866  0.74580454  0.00666384    -0.02800
C589        C  0.07166652  0.43448138  0.23167832    -0.09400
C590        C  0.08381725  0.48399749  0.26337818     0.06800
C591        C  0.04808155  0.52965641  0.25740736    -0.03200
C592        C  0.01526757  0.53276340  0.20895743    -0.07700
C593        C  0.01449109  0.48819637  0.16983704     0.05900
C594        C  0.03614977  0.43623419  0.18530485    -0.02700
Br595      Br  0.02727165  0.36963733  0.13897477    -0.02400
H596        H  0.09550024  0.39692778  0.23722005     0.09800
H597        H  0.99545131  0.57191306  0.19926500     0.07800
Br598      Br  0.04924615  0.59149118  0.31012931    -0.02800
C599        C  0.16210971  0.30643850  0.07305317    -0.09400
C600        C  0.14836597  0.25920211  0.03835876     0.06800
C601        C  0.10403371  0.26316316  0.00049814    -0.03200
C602        C  0.08019142  0.31523881  0.99076879    -0.07700
C603        C  0.09879101  0.36368639  0.02098063     0.05900
C604        C  0.13947089  0.35857249  0.06350017    -0.02700
Br605      Br  0.16760976  0.42056082  0.11009707    -0.02400
H606        H  0.19413852  0.30480848  0.10489723     0.09800
H607        H  0.04914343  0.31822479  0.95794923     0.07800
Br608      Br  0.07909054  0.19746929  0.96015400    -0.02800
C609        C  0.07766808  0.58086558  0.77356624    -0.09400
C610        C  0.09550961  0.53038960  0.74875228     0.06800
C611        C  0.06493310  0.48232466  0.76104056    -0.03200
C612        C  0.04697462  0.47866104  0.81444999    -0.07700
C613        C  0.04904850  0.52688229  0.84947910     0.05900
C614        C  0.06051144  0.57926273  0.82722267    -0.02700
Br615      Br  0.05906700  0.64811703  0.86985169    -0.02400
H616        H  0.08942332  0.62130596  0.75851558     0.09800
H617        H  0.03395442  0.43843213  0.82905516     0.07800
Br618      Br  0.05779720  0.41866509  0.71066095    -0.02800
C619        C  0.02227360  0.73431106  0.99739093    -0.09400
C620        C  0.05580724  0.72479983  0.04531811     0.06800
C621        C  0.02973521  0.69936319  0.09005991    -0.03200
C622        C  0.97577138  0.67978688  0.08116215    -0.07700
C623        C  0.95986395  0.66395976  0.02690081     0.05900
C624        C  0.97305971  0.70367717  0.98860042    -0.02700
Br625      Br  0.93462226  0.70096483  0.91866273    -0.02400
H626        H  0.03689551  0.75854755  0.96422103     0.09800
H627        H  0.95835512  0.65609442  0.11338256     0.07800
Br628      Br  0.06663984  0.66332732  0.15089843    -0.02800
C629        C  0.53583600  0.33074768  0.57545301    -0.09400
C630        C  0.48634283  0.31632038  0.59841281     0.06800
C631        C  0.44568411  0.29210487  0.56169506    -0.03200
C632        C  0.46059778  0.26505150  0.51264356    -0.07700
C633        C  0.51583491  0.26218693  0.50097741     0.05900
C634        C  0.54981130  0.30522430  0.52549172    -0.02700
Br635      Br  0.62014901  0.32001628  0.49926935    -0.02400
H636        H  0.56650232  0.35512357  0.59970333     0.09800
H637        H  0.43079135  0.23848114  0.48960837     0.07800
Br638      Br  0.37058865  0.29615465  0.57519070    -0.02800
C639        C  0.45895295  0.12815971  0.71217680    -0.09400
C640        C  0.44660459  0.11126738  0.65701756     0.06800
C641        C  0.41272143  0.06282639  0.64651129    -0.03200
C642        C  0.39228621  0.03372405  0.68952245    -0.07700
C643        C  0.40029431  0.05318911  0.74414012     0.05900
C644        C  0.43559957  0.10029670  0.75548365    -0.02700
Br645      Br  0.45184634  0.12928312  0.82910303    -0.02400
H646        H  0.48671964  0.16316868  0.72166842     0.09800
H647        H  0.36486438  0.99849366  0.67921725     0.07800
Br648      Br  0.39048656  0.03141044  0.57515003    -0.02800
C649        C  0.53395671  0.95267795  0.73385572    -0.09400
C650        C  0.50731061  0.90281690  0.71672926     0.06800
C651        C  0.48793860  0.89379705  0.66174988    -0.03200
C652        C  0.49701075  0.93461901  0.62387366    -0.07700
C653        C  0.52814577  0.98268702  0.63968015     0.05900
C654        C  0.54518233  0.99269378  0.69583451    -0.02700
Br655      Br  0.58490083  0.05835293  0.72491154    -0.02400
H656        H  0.54954979  0.95852559  0.77615403     0.09800
H657        H  0.48345182  0.92667693  0.58123067     0.07800
Br658      Br  0.45811289  0.82240559  0.63473735    -0.02800
C659        C  0.72321343  0.99957596  0.53369521    -0.09400
C660        C  0.69539539  0.97768024  0.57673807     0.06800
C661        C  0.64671501  0.94745107  0.56261035    -0.03200
C662        C  0.61860079  0.95846704  0.51208810    -0.07700
C663        C  0.63937205  0.00041920  0.47884300     0.05900
C664        C  0.69635699  0.00358515  0.48197578    -0.02700
Br665      Br  0.73400832  0.97245129  0.42208032    -0.02400
H666        H  0.76655283  0.00654090  0.53906858     0.09800
H667        H  0.57721267  0.94297405  0.50475965     0.07800
Br668      Br  0.62111631  0.88935314  0.60774475    -0.02800
C669        C  0.74829509  0.40036221  0.07768421    -0.09400
C670        C  0.80333260  0.39144002  0.09481767     0.06800
C671        C  0.82418049  0.42068458  0.14287495    -0.03200
C672        C  0.79165123  0.45783499  0.17130013    -0.07700
C673        C  0.73742068  0.46746441  0.15376571     0.05900
C674        C  0.71553929  0.43782055  0.10672927    -0.02700
Br675      Br  0.64204887  0.44931012  0.07990200    -0.02400
H676        H  0.73126457  0.38053845  0.03985376     0.09800
H677        H  0.80863845  0.47824195  0.20890084     0.07800
Br678      Br  0.89613932  0.41224080  0.17401377    -0.02800
C679        C  0.88691052  0.14966632  0.01079053    -0.09400
C680        C  0.87015746  0.18400739  0.05429092     0.06800
C681        C  0.91068291  0.21967960  0.08144483    -0.03200
C682        C  0.95868070  0.22973895  0.05440716    -0.07700
C683        C  0.95473714  0.22088440  0.99706293     0.05900
C684        C  0.92990304  0.16843374  0.98091861    -0.02700
Br685      Br  0.96929430  0.10880433  0.94805378    -0.02400
H686        H  0.86268587  0.11342962  0.99577704     0.09800
H687        H  0.98684679  0.26153768  0.07221486     0.07800
Br688      Br  0.89822824  0.26820062  0.14349832    -0.02800
C689        C  0.91683971  0.50227843  0.76228441    -0.09400
C690        C  0.88966504  0.46858086  0.72117792     0.06800
C691        C  0.91017250  0.41336714  0.71800023    -0.03200
C692        C  0.92387043  0.38723476  0.76789080    -0.07700
C693        C  0.92382763  0.41944122  0.81759362     0.05900
C694        C  0.92028399  0.47895637  0.81418041    -0.02700
Br695      Br  0.89666126  0.52791582  0.87216460    -0.02400
H696        H  0.91337065  0.54756366  0.76073951     0.09800
H697        H  0.92819202  0.34204121  0.76806951     0.07800
Br698      Br  0.89975939  0.36848953  0.65152903    -0.02800
C699        C  0.71845747  0.55944098  0.00339261    -0.09400
C700        C  0.74752728  0.59168658  0.04486038     0.06800
C701        C  0.79594370  0.56969941  0.06845110    -0.03200
C702        C  0.82108580  0.52642472  0.04126230    -0.07700
C703        C  0.79727926  0.50087090  0.99309414     0.05900
C704        C  0.74293943  0.51352681  0.97759581    -0.02700
Br705      Br  0.70115285  0.47225285  0.92110721    -0.02400
H706        H  0.67990892  0.57433978  0.98636324     0.09800
H707        H  0.86019708  0.51295332  0.05827658     0.07800
Br708      Br  0.83592931  0.60036936  0.13232386    -0.02800
C709        C  0.25667854  0.93871630  0.43543528    -0.09400
C710        C  0.20844952  0.93692311  0.46288434     0.06800
C711        C  0.21141071  0.94235483  0.52065262    -0.03200
C712        C  0.26216110  0.94367722  0.54917379    -0.07700
C713        C  0.30984317  0.93154300  0.52112096     0.05900
C714        C  0.30733883  0.94017774  0.46400795    -0.02700
Br715      Br  0.37152372  0.94450784  0.42233976    -0.02400
H716        H  0.25534176  0.93571719  0.39192250     0.09800
H717        H  0.26264445  0.94362255  0.59364014     0.07800
Br718      Br  0.14840602  0.93652004  0.56333326    -0.02800
C719        C  0.98345380  0.91589678  0.17323880    -0.09400
C720        C  0.02263144  0.87861301  0.15408136     0.06800
C721        C  0.07519488  0.90334139  0.15828250    -0.03200
C722        C  0.09078071  0.93062185  0.20893128    -0.07700
C723        C  0.05023062  0.94133217  0.24656134     0.05900
C724        C  0.99517637  0.94004954  0.22588514    -0.02700
Br725      Br  0.93486145  0.94830513  0.27224476    -0.02400
H726        H  0.94116907  0.90973527  0.15959124     0.09800
H727        H  0.13351266  0.93539846  0.22151039     0.07800
Br728      Br  0.12935380  0.88054612  0.10887384    -0.02800
C729        C  0.00766199  0.74712384  0.59906103    -0.09400
C730        C  0.97815310  0.78032009  0.63514842     0.06800
C731        C  0.96929719  0.83726126  0.62385307    -0.03200
C732        C  0.99281109  0.86083749  0.57900384    -0.07700
C733        C  0.02628082  0.82891604  0.54517715     0.05900
C734        C  0.03323256  0.77099639  0.55554534    -0.02700
Br735      Br  0.08145908  0.72238931  0.51708063    -0.02400
H736        H  0.01654655  0.70395997  0.60902575     0.09800
H737        H  0.98575330  0.90489088  0.57153140     0.07800
Br738      Br  0.93264291  0.88687530  0.67323321    -0.02800
C739        C  0.89977135  0.75512471  0.48745031    -0.09400
C740        C  0.86657908  0.79158868  0.51645954     0.06800
C741        C  0.87185727  0.84965388  0.50986692    -0.03200
C742        C  0.89988426  0.86934963  0.46621464    -0.07700
C743        C  0.92691193  0.83215139  0.43080425     0.05900
C744        C  0.92766707  0.77421373  0.44313422    -0.02700
Br745      Br  0.96127080  0.71693158  0.40010532    -0.02400
H746        H  0.89584271  0.71015443  0.49261597     0.09800
H747        H  0.90075925  0.91436908  0.46067763     0.07800
Br748      Br  0.83234214  0.90249664  0.55291568    -0.02800
loop_ 
_geom_bond_atom_site_label_1 
_geom_bond_atom_site_label_2 
_geom_bond_distance 
_geom_bond_site_symmetry_2 
_ccdc_geom_bond_type 
O1           Ni7   1.943       .  S
O1           C22   1.278       .  A
O2          Ni25   1.909       .  S
O2           C11   1.273       .  A
O3           Ni7   1.947       .  S
O3          Ni25   1.888       .  S
O3          Ni19   1.925       .  S
O3           H26   0.966       .  S
C4           O21   1.292       .  A
C4           O13   1.284       .  A
C4          C155   1.533       .  S
O5          Ni24   2.002       .  S
O5           C11   1.290       .  A
O6          Ni24   1.956       .  S
O6            C8   1.280       .  A
Ni7          O10   1.975       .  S
Ni7          O12   1.970       .  S
C8           O18   1.295       .  A
C8           C64   1.529       .  S
O9          Ni25   1.948       .  S
O9           C15   1.287       .  A
O10          C15   1.287       .  A
C11         C257   1.522       .  S
O12          C14   1.274       .  A
O13         Ni24   1.974       .  S
C14          O20   1.280       .  A
C14         C268   1.532       .  S
C15          C55   1.520       .  S
H16          O17   0.966       .  S
O17         Ni25   1.917       .  S
O17         Ni19   1.914       .  S
O17         Ni24   1.937       .  S
O18         Ni19   1.987       .  S
Ni19         O23   1.963       .  S
Ni19         O21   1.941       .  S
O20         Ni25   1.932       .  S
C22          O23   1.293       .  A
C22         C164   1.516       .  S
O27         Ni33   1.975       .  S
O27          C48   1.288       .  A
O28         Ni51   1.896       .  S
O28          C37   1.279       .  A
O29         Ni33   1.917       .  S
O29         Ni51   1.892       .  S
O29         Ni45   1.901       .  S
O29          H52   0.966       .  S
C30          O47   1.265       .  A
C30          O39   1.284       .  A
C30         C333   1.488       .  S
O31         Ni50   1.999       .  S
O31          C37   1.284       .  A
O32         Ni50   1.940       .  S
O32          C34   1.276       .  A
Ni33         O36   1.962       .  S
Ni33         O38   1.957       .  S
C34          O44   1.292       .  A
C34         C342   1.522       .  S
O35         Ni51   1.897       .  S
O35          C41   1.272       .  A
O36          C41   1.287       .  A
C37         C266   1.531       .  S
O38          C40   1.278       .  A
O39         Ni50   1.969       .  S
C40          O46   1.299       .  A
C40         C275   1.556       .  S
C41          C98   1.473       .  S
H42          O43   0.966       .  S
O43         Ni51   1.915       .  S
O43         Ni45   1.929       .  S
O43         Ni50   1.960       .  S
O44         Ni45   1.969       .  S
Ni45         O49   1.951       .  S
Ni45         O47   1.871       .  S
O46         Ni51   2.004       .  S
C48          O49   1.277       .  A
C48          C62   1.520       .  S
C53         C136   1.511       .  S
C53          C54   1.450       .  A
C53          C58   1.375       .  A
C54          C55   1.453       .  A
C54          H59   1.082       .  S
C55          C56   1.408       .  A
C56          C57   1.387       .  A
C56          H60   1.085       .  S
C57         C740   1.454       .  S
C57          C58   1.383       .  A
C58          H61   1.089       .  S
C62          C63   1.449   1_455  A
C62          C67   1.382       .  A
C63          C64   1.456       .  A
C63          H68   1.081       .  S
C64          C65   1.406       .  A
C65          C66   1.397       .  A
C65          H69   1.085       .  S
C66         C730   1.464       .  S
C66          C67   1.387   1_655  A
C67          H70   1.088       .  S
C71         C113   1.468       .  S
C71          C72   1.396       .  A
C71          C76   1.405       .  A
C72          C73   1.406       .  A
C72          H77   1.081       .  S
C73         C720   1.519       .  S
C73          C74   1.410   1_455  A
C74          C75   1.409       .  A
C74          H78   1.083       .  S
C75         C143   1.484       .  S
C75          C76   1.408   1_655  A
C76          H79   1.077       .  S
O80         Ni88   1.912       .  S
O80          C90   1.266       .  A
O81         Ni88   1.919       .  S
O81          C91   1.284       .  A
O82         Ni88   1.912       .  S
O82          C92   1.269       .  A
O83         Ni88   1.889   1_655  S
O83          C93   1.276       .  A
O84         Ni89   1.907       .  S
O84          C93   1.278   1_455  A
O85         Ni89   1.915       .  S
O85          C92   1.275       .  A
O86         Ni89   1.897       .  S
O86          C91   1.276       .  A
O87         Ni89   1.917       .  S
O87          C90   1.269       .  A
Ni88        Ni89   2.377       .  S
C90         C723   1.465       .  S
C91         C733   1.480       .  S
C92         C710   1.473       .  S
C93         C743   1.480       .  S
C94         C106   1.484       .  S
C94          C95   1.400       .  A
C94          C99   1.425       .  A
C95          C96   1.405       .  A
C95         H100   1.078       .  S
C96         C713   1.515       .  S
C96          C97   1.403       .  A
C97          C98   1.411       .  A
C97         H101   1.085       .  S
C98          C99   1.421       .  A
C99         H102   1.083       .  S
O103       Ni109   1.902       .  S
O103        C124   1.268       .  A
O104       Ni127   1.900       .  S
O104        C113   1.257       .  A
O105       Ni109   1.900       .  S
O105       Ni127   1.866       .  S
O105       Ni121   1.915       .  S
O105        H128   0.966       .  S
C106        O123   1.278       .  A
C106        O115   1.276       .  A
O107       Ni126   1.924       .  S
O107        C113   1.269       .  A
O108       Ni126   1.955       .  S
O108        C110   1.274       .  A
Ni109       O112   1.934       .  S
Ni109       O114   1.938       .  S
C110        O120   1.290       .  A
C110        C403   1.537       .  S
O111       Ni127   1.898       .  S
O111        C117   1.278       .  A
O112        C117   1.281       .  A
O114        C116   1.269       .  A
O115       Ni126   1.933       .  S
C116        O122   1.261       .  A
C116        C374   1.480       .  S
C117        C337   1.479       .  S
H118        O119   0.966       .  S
O119       Ni127   1.903       .  S
O119       Ni121   1.904       .  S
O119       Ni126   1.882       .  S
O120       Ni121   1.990       .  S
Ni121       O125   1.920       .  S
Ni121       O123   1.926       .  S
O122       Ni127   1.895       .  S
C124        O125   1.276       .  A
C124        C387   1.459       .  S
O129       Ni135   1.904       .  S
O129        C150   1.281       .  A
O130       Ni153   1.839       .  S
O130        C139   1.261       .  A
O131       Ni135   1.888       .  S
O131       Ni153   1.831       .  S
O131       Ni147   1.900       .  S
O131        H154   0.968       .  S
C132        O149   1.274       .  A
C132        O141   1.279       .  A
C132        C383   1.453       .  S
O133       Ni152   1.937       .  S
O133        C139   1.285       .  A
O134       Ni152   1.953       .  S
O134        C136   1.281       .  A
Ni135       O138   1.931       .  S
Ni135       O140   1.940       .  S
C136        O146   1.284       .  A
O137       Ni153   1.956       .  S
O137        C143   1.298       .  A
O138        C143   1.290       .  A
C139        C394   1.449       .  S
O140        C142   1.256       .  A
O141       Ni152   1.930       .  S
C142        O148   1.268       .  A
C142        C159   1.506       .  S
H144        O145   0.966       .  S
O145       Ni153   1.937       .  S
O145       Ni147   1.877       .  S
O145       Ni152   1.895       .  S
O146       Ni147   1.958       .  S
Ni147       O151   1.902       .  S
Ni147       O149   1.895       .  S
O148       Ni153   1.980       .  S
C150        O151   1.278       .  A
C150        C196   1.433       .  S
C155        C156   1.400       .  A
C155        C160   1.447   1_556  A
C156        C157   1.392   1_556  A
C156        H161   1.083       .  S
C157        C700   1.469       .  S
C157        C158   1.384       .  A
C158        C159   1.399       .  A
C158        H162   1.086       .  S
C159        C160   1.449       .  A
C160        H163   1.082       .  S
C164        C165   1.404       .  A
C164        C169   1.434       .  A
C165        C166   1.411       .  A
C165        H170   1.083       .  S
C166        C690   1.512       .  S
C166        C167   1.405       .  A
C167        C168   1.393       .  A
C167        H171   1.077       .  S
C168        C238   1.512       .  S
C168        C169   1.434       .  A
C169        H172   1.080       .  S
C173        C234   1.526       .  S
C173        C174   1.395       .  A
C173        C178   1.442   1_556  A
C174        C175   1.398   1_556  A
C174        H179   1.082       .  S
C175        C680   1.476       .  S
C175        C176   1.380       .  A
C176        C177   1.395       .  A
C176        H180   1.082       .  S
C177        C212   1.497       .  S
C177        C178   1.446       .  A
C178        H181   1.082       .  S
O182       Ni190   1.911   1_554  S
O182        C192   1.280       .  A
O183       Ni190   1.917       .  S
O183        C193   1.275       .  A
O184       Ni190   1.951       .  S
O184        C194   1.286       .  A
O185       Ni190   1.908       .  S
O185        C195   1.276       .  A
O186       Ni191   1.884       .  S
O186        C195   1.279       .  A
O187       Ni191   1.911       .  S
O187        C194   1.280       .  A
O188       Ni191   1.916       .  S
O188        C193   1.274       .  A
O189       Ni191   1.919   1_554  S
O189        C192   1.282       .  A
Ni190      Ni191   2.379       .  S
C192        C670   1.493       .  S
C193        C693   1.474       .  S
C194        C683   1.506       .  S
C195        C703   1.466       .  S
C196        C197   1.396       .  A
C196        C201   1.409       .  A
C197        C198   1.398       .  A
C197        H202   1.083       .  S
C198        C226   1.465       .  S
C198        C199   1.416       .  A
C199        C200   1.388       .  A
C199        H203   1.085       .  S
C200        C673   1.486       .  S
C200        C201   1.394       .  A
C201        H204   1.082       .  S
O205       Ni211   1.977       .  S
O205        C226   1.290       .  A
O206       Ni229   1.927       .  S
O206        C215   1.279       .  A
O207       Ni211   1.908       .  S
O207       Ni229   1.876       .  S
O207       Ni223   1.944       .  S
O207        H230   0.966       .  S
C208        O225   1.299       .  A
C208        O217   1.278       .  A
C208        C424   1.496       .  S
O209       Ni228   1.892       .  S
O209        C215   1.263       .  A
O210       Ni228   1.932       .  S
O210        C212   1.257       .  A
Ni211       O214   2.007       .  S
Ni211       O216   1.943       .  S
C212        O222   1.276       .  A
O213       Ni229   1.934       .  S
O213        C219   1.284       .  A
O214        C219   1.292       .  A
C215        C392   1.460       .  S
O216        C218   1.274       .  A
O217       Ni228   1.907       .  S
C218        O224   1.293       .  A
C218        C433   1.516       .  S
C219        C451   1.546       .  S
H220        O221   0.961       .  S
O221       Ni229   1.937       .  S
O221       Ni223   1.830       .  S
O221       Ni228   1.866       .  S
O222       Ni223   1.967       .  S
Ni223       O227   1.812       .  S
Ni223       O225   2.000       .  S
O224       Ni229   1.965       .  S
C226        O227   1.262       .  A
O231       Ni237   1.899       .  S
O231        C252   1.275       .  A
O232       Ni255   1.932       .  S
O232        C241   1.301       .  A
O233       Ni237   1.875       .  S
O233       Ni255   1.881       .  S
O233       Ni249   1.929       .  S
O233        H256   0.964       .  S
C234        O251   1.313       .  A
C234        O243   1.292       .  A
O235       Ni254   1.949       .  S
O235        C241   1.295       .  A
O236       Ni254   1.891       .  S
O236        C238   1.272       .  A
Ni237       O240   1.941       .  S
Ni237       O242   1.929       .  S
C238        O248   1.302       .  A
O239       Ni255   1.972       .  S
O239        C245   1.297       .  A
O240        C245   1.278       .  A
C241        C300   1.490       .  S
O242        C244   1.273       .  A
O243       Ni254   1.926       .  S
C244        O250   1.296       .  A
C244        C259   1.526       .  S
C245        C437   1.511       .  S
H246        O247   0.966       .  S
O247       Ni255   1.892       .  S
O247       Ni249   1.841       .  S
O247       Ni254   1.859       .  S
O248       Ni249   2.009       .  S
Ni249       O253   1.953       .  S
Ni249       O251   1.992       .  S
O250       Ni255   2.005       .  S
C252        O253   1.278       .  A
C252        C442   1.497       .  S
C257        C258   1.444   1_565  A
C257        C262   1.406       .  A
C258        C259   1.447       .  A
C258        H263   1.082       .  S
C259        C260   1.405       .  A
C260        C261   1.404   1_545  A
C260        H264   1.083       .  S
C261        C660   1.481       .  S
C261        C262   1.387       .  A
C262        H265   1.084       .  S
C266        C267   1.462       .  A
C266        C271   1.404       .  A
C267        C268   1.460       .  A
C267        H272   1.082       .  S
C268        C269   1.396       .  A
C269        C270   1.370       .  A
C269        H273   1.086       .  S
C270        C650   1.443       .  S
C270        C271   1.367       .  A
C271        H274   1.085       .  S
C275        C276   1.462   1_565  A
C275        C280   1.418       .  A
C276        C277   1.455       .  A
C276        H281   1.082       .  S
C277        C314   1.545       .  S
C277        C278   1.396       .  A
C278        C279   1.387       .  A
C278        H282   1.081       .  S
C279        C643   1.492       .  S
C279        C280   1.414   1_545  A
C280        H283   1.084       .  S
O284       Ni292   1.919       .  S
O284        C294   1.283       .  A
O285       Ni292   1.927       .  S
O285        C295   1.284       .  A
O286       Ni292   1.869       .  S
O286        C296   1.269       .  A
O287       Ni292   1.903       .  S
O287        C297   1.277       .  A
O288       Ni293   1.928       .  S
O288        C297   1.285       .  A
O289       Ni293   1.911       .  S
O289        C296   1.281       .  A
O290       Ni293   1.900       .  S
O290        C295   1.275       .  A
O291       Ni293   1.920       .  S
O291        C294   1.280       .  A
Ni292      Ni293   2.387       .  S
C294        C663   1.493       .  S
C295        C640   1.489       .  S
C296        C653   1.455   1_545  S
C297        C633   1.486       .  S
C298        C328   1.492       .  S
C298        C299   1.416       .  A
C298        C303   1.416       .  A
C299        C300   1.419       .  A
C299        H304   1.083       .  S
C300        C301   1.402       .  A
C301        C302   1.399       .  A
C301        H305   1.083       .  S
C302        C630   1.508       .  S
C302        C303   1.407       .  A
C303        H306   1.078       .  S
O307       Ni313   1.975       .  S
O307        C328   1.299       .  A
O308       Ni331   1.970       .  S
O308        C317   1.293       .  A
O309       Ni313   1.741       .  S
O309       Ni331   1.893       .  S
O309       Ni325   1.833       .  S
O309        H332   0.968       .  S
C310        O327   1.255       .  A
C310        O319   1.273       .  A
C310        C476   1.430       .  S
O311       Ni330   1.890       .  S
O311        C317   1.276       .  A
O312       Ni330   1.959       .  S
O312        C314   1.274       .  A
Ni313       O316   1.938       .  S
Ni313       O318   1.822       .  S
C314        O324   1.293       .  A
O315       Ni331   1.918       .  S
O315        C321   1.287       .  A
O316        C321   1.287       .  A
C317        C444   1.505       .  S
O318        C320   1.288       .  A
O319       Ni330   1.926       .  S
C320        O326   1.339       .  A
C320        C344   1.527       .  S
C321        C351   1.492       .  S
H322        O323   0.966       .  S
O323       Ni331   1.920       .  S
O323       Ni325   1.890       .  S
O323       Ni330   1.906       .  S
O324       Ni325   1.973       .  S
Ni325       O329   1.903       .  S
Ni325       O327   1.858       .  S
O326       Ni331   2.100       .  S
C328        O329   1.281       .  A
C333        C334   1.417       .  A
C333        C338   1.409   1_556  A
C334        C335   1.407   1_556  A
C334        H339   1.078       .  S
C335        C620   1.508       .  S
C335        C336   1.387       .  A
C336        C337   1.406       .  A
C336        H340   1.078       .  S
C337        C338   1.407       .  A
C338        H341   1.083       .  S
C342        C343   1.439       .  A
C342        C347   1.401       .  A
C343        C344   1.440       .  A
C343        H348   1.082       .  S
C344        C345   1.402       .  A
C345        C346   1.409       .  A
C345        H349   1.076       .  S
C346        C610   1.510       .  S
C346        C347   1.403       .  A
C347        H350   1.082       .  S
C351        C352   1.410       .  A
C351        C356   1.425   1_556  A
C352        C353   1.382   1_556  A
C352        H357   1.082       .  S
C353        C600   1.493       .  S
C353        C354   1.375       .  A
C354        C355   1.415       .  A
C354        H358   1.084       .  S
C355        C497   1.474       .  S
C355        C356   1.435       .  A
C356        H359   1.082       .  S
O360       Ni368   1.902   1_556  S
O360        C370   1.275       .  A
O361       Ni368   1.912       .  S
O361        C371   1.282       .  A
O362       Ni368   1.892       .  S
O362        C372   1.275       .  A
O363       Ni368   1.878       .  S
O363        C373   1.279   1_455  A
O364       Ni369   1.936       .  S
O364        C373   1.280       .  A
O365       Ni369   1.918   1_455  S
O365        C372   1.280       .  A
O366       Ni369   1.916       .  S
O366        C371   1.278   1_655  A
O367       Ni369   1.914   1_556  S
O367        C370   1.274   1_655  A
Ni368      Ni369   2.388   1_455  S
C370        C613   1.464       .  S
C371        C593   1.463       .  S
C372        C603   1.467       .  S
C373        C623   1.478       .  S
C374        C375   1.409       .  A
C374        C379   1.402       .  A
C375        C376   1.416       .  A
C375        H380   1.083       .  S
C376        C504   1.480       .  S
C376        C377   1.410       .  A
C377        C378   1.396       .  A
C377        H381   1.083       .  S
C378        C590   1.489       .  S
C378        C379   1.399       .  A
C379        H382   1.083       .  S
C383        C384   1.401       .  A
C383        C388   1.398       .  A
C384        C385   1.398       .  A
C384        H389   1.084       .  S
C385        C583   1.492       .  S
C385        C386   1.397       .  A
C386        C387   1.407       .  A
C386        H390   1.082       .  S
C387        C388   1.401       .  A
C388        H391   1.083       .  S
C392        C393   1.396       .  A
C392        C397   1.412       .  A
C393        C394   1.395   1_545  A
C393        H398   1.083       .  S
C394        C395   1.414       .  A
C395        C396   1.398       .  A
C395        H399   1.085       .  S
C396        C573   1.499       .  S
C396        C397   1.393   1_565  A
C397        H400   1.083       .  S
C401        C493   1.533       .  S
C401        C402   1.432   1_545  A
C401        C406   1.400       .  A
C402        C403   1.443       .  A
C402        H407   1.071       .  S
C403        C404   1.410       .  A
C404        C405   1.419       .  A
C404        H408   1.079       .  S
C405        C563   1.518       .  S
C405        C406   1.410   1_565  A
C406        H409   1.076       .  S
O410       Ni418   1.883       .  S
O410        C420   1.276       .  A
O411       Ni418   1.889   1_545  S
O411        C421   1.278   1_554  A
O412       Ni418   1.907       .  S
O412        C422   1.279       .  A
O413       Ni418   1.878       .  S
O413        C423   1.275   1_554  A
O414       Ni419   1.946       .  S
O414        C423   1.285       .  A
O415       Ni419   1.948       .  S
O415        C422   1.286   1_556  A
O416       Ni419   1.939   1_545  S
O416        C421   1.283       .  A
O417       Ni419   1.942       .  S
O417        C420   1.285   1_556  A
Ni418      Ni419   2.392   1_554  S
C420        C580   1.466       .  S
C421        C550   1.467       .  S
C422        C560   1.478       .  S
C423        C570   1.468       .  S
C424        C425   1.428       .  A
C424        C429   1.412       .  A
C425        C426   1.425       .  A
C425        H430   1.082       .  S
C426        C496   1.488       .  S
C426        C427   1.398       .  A
C427        C428   1.389       .  A
C427        H431   1.082       .  S
C428        C553   1.496       .  S
C428        C429   1.403       .  A
C429        H432   1.083       .  S
C433        C434   1.399       .  A
C433        C438   1.448       .  A
C434        C435   1.386       .  A
C434        H439   1.076       .  S
C435        C543   1.507       .  S
C435        C436   1.401       .  A
C436        C437   1.408       .  A
C436        H440   1.083       .  S
C437        C438   1.456       .  A
C438        H441   1.082       .  S
C442        C443   1.442       .  A
C442        C447   1.413       .  A
C443        C444   1.436   1_655  A
C443        H448   1.080       .  S
C444        C445   1.420       .  A
C445        C446   1.385       .  A
C445        H449   1.086       .  S
C446        C533   1.494       .  S
C446        C447   1.384   1_455  A
C447        H450   1.086       .  S
C451        C452   1.408       .  A
C451        C456   1.450   1_655  A
C452        C453   1.402   1_655  A
C452        H457   1.077       .  S
C453        C520   1.520       .  S
C453        C454   1.397       .  A
C454        C455   1.401       .  A
C454        H458   1.085       .  S
C455        C490   1.520       .  S
C455        C456   1.455       .  A
C456        H459   1.082       .  S
O460       Ni468   1.928   1_455  S
O460        C470   1.281       .  A
O461       Ni468   1.921       .  S
O461        C471   1.281       .  A
O462       Ni468   1.898       .  S
O462        C472   1.274       .  A
O463       Ni468   1.901   1_455  S
O463        C473   1.273       .  A
O464       Ni469   1.920       .  S
O464        C473   1.280       .  A
O465       Ni469   1.920   1_655  S
O465        C472   1.283       .  A
O466       Ni469   1.902       .  S
O466        C471   1.279   1_455  A
O467       Ni469   1.909       .  S
O467        C470   1.276       .  A
Ni468      Ni469   2.387   1_655  S
C470        C523   1.477       .  S
C471        C530   1.483       .  S
C472        C540   1.454       .  S
C473        C513   1.466       .  S
C474        C486   1.455       .  S
C474        C475   1.400       .  A
C474        C479   1.408       .  A
C475        C476   1.406       .  A
C475        H480   1.083       .  S
C476        C477   1.407       .  A
C477        C478   1.394       .  A
C477        H481   1.085       .  S
C478        C510   1.517       .  S
C478        C479   1.403       .  A
C479        H482   1.079       .  S
O483       Ni489   1.931       .  S
O483        C504   1.275       .  A
O484       Ni507   1.965       .  S
O484        C493   1.305       .  A
O485       Ni489   1.903       .  S
O485       Ni507   1.911       .  S
O485       Ni501   1.923       .  S
O485        H508   0.966       .  S
C486        O503   1.282       .  A
C486        O495   1.276       .  A
O487       Ni506   1.967       .  S
O487        C493   1.297       .  A
O488       Ni506   1.822       .  S
O488        C490   1.282       .  A
Ni489       O492   1.951       .  S
Ni489       O494   1.921       .  S
C490        O500   1.325       .  A
O491       Ni507   1.884       .  S
O491        C497   1.279       .  A
O492        C497   1.283       .  A
O494        C496   1.271       .  A
O495       Ni506   1.877       .  S
C496        O502   1.287       .  A
H498        O499   0.970       .  S
O499       Ni507   1.840       .  S
O499       Ni501   1.899       .  S
O499       Ni506   1.740       .  S
O500       Ni501   2.098       .  S
Ni501       O505   1.893       .  S
Ni501       O503   1.940       .  S
O502       Ni507   1.958       .  S
C504        O505   1.271       .  A
C509        C510   1.417       .  A
C509        C514   1.394       .  A
C509        H516   1.083       .  S
C510        C511   1.411       .  A
C511        C512   1.398       .  A
C511       Br518   1.918       .  S
C512        C513   1.399       .  A
C512        H517   1.071       .  S
C513        C514   1.404       .  A
C514       Br515   1.916       .  S
C519        C520   1.407       .  A
C519        C524   1.405       .  A
C519        H526   1.083       .  S
C520        C521   1.408   1_455  A
C521        C522   1.407       .  A
C521       Br528   1.907       .  S
C522        C523   1.409   1_655  A
C522        H527   1.083       .  S
C523        C524   1.415       .  A
C524       Br525   1.899       .  S
C529        C530   1.414   1_455  A
C529        C534   1.411       .  A
C529        H536   1.083       .  S
C530        C531   1.410       .  A
C531        C532   1.381       .  A
C531       Br538   1.928       .  S
C532        C533   1.406   1_655  A
C532        H537   1.077       .  S
C533        C534   1.406       .  A
C534       Br535   1.915       .  S
C539        C540   1.398       .  A
C539        C544   1.403       .  A
C539        H546   1.081       .  S
C540        C541   1.398       .  A
C541        C542   1.383       .  A
C541       Br548   1.914       .  S
C542        C543   1.411       .  A
C542        H547   1.079       .  S
C543        C544   1.418       .  A
C544       Br545   1.922       .  S
C549        C550   1.395   1_554  A
C549        C554   1.391       .  A
C549        H556   1.082       .  S
C550        C551   1.403   1_556  A
C551        C552   1.404       .  A
C551       Br558   1.912   1_554  S
C552        C553   1.411       .  A
C552        H557   1.083       .  S
C553        C554   1.423       .  A
C554       Br555   1.925       .  S
C559        C560   1.399       .  A
C559        C564   1.402       .  A
C559        H566   1.081   1_565  S
C560        C561   1.399       .  A
C561        C562   1.401       .  A
C561       Br568   1.903       .  S
C562        C563   1.412       .  A
C562        H567   1.078       .  S
C563        C564   1.424       .  A
C564       Br565   1.924   1_565  S
C569        C570   1.394   1_544  A
C569        C574   1.396       .  A
C569        H576   1.083   1_554  S
C570        C571   1.402   1_556  A
C571        C572   1.406       .  A
C571       Br578   1.901   1_554  S
C572        C573   1.410       .  A
C572        H577   1.083       .  S
C573        C574   1.419   1_565  A
C574       Br575   1.905       .  S
C579        C580   1.394       .  A
C579        C584   1.394       .  A
C579        H586   1.072       .  S
C580        C581   1.403       .  A
C581        C582   1.402       .  A
C581       Br588   1.907       .  S
C582        C583   1.411       .  A
C582        H587   1.083       .  S
C583        C584   1.418       .  A
C584       Br585   1.927       .  S
C589        C590   1.406       .  A
C589        C594   1.393       .  A
C589        H596   1.082       .  S
C590        C591   1.412       .  A
C591        C592   1.399       .  A
C591       Br598   1.919       .  S
C592        C593   1.401       .  A
C592        H597   1.083   1_455  S
C593        C594   1.406       .  A
C594       Br595   1.917       .  S
C599        C600   1.410       .  A
C599        C604   1.386       .  A
C599        H606   1.078       .  S
C600        C601   1.397       .  A
C601        C602   1.398   1_554  A
C601       Br608   1.895   1_554  S
C602        C603   1.405   1_556  A
C602        H607   1.081       .  S
C603        C604   1.411       .  A
C604       Br605   1.929       .  S
C609        C610   1.411       .  A
C609        C614   1.396       .  A
C609        H616   1.082       .  S
C610        C611   1.410       .  A
C611        C612   1.401       .  A
C611       Br618   1.917       .  S
C612        C613   1.405       .  A
C612        H617   1.082       .  S
C613        C614   1.406       .  A
C614       Br615   1.911       .  S
C619        C620   1.419   1_556  A
C619        C624   1.409   1_455  A
C619        H626   1.082       .  S
C620        C621   1.440       .  A
C621        C622   1.406   1_455  A
C621       Br628   1.927       .  S
C622        C623   1.397       .  A
C622        H627   1.084       .  S
C623        C624   1.396   1_554  A
C624       Br625   1.903       .  S
C629        C630   1.410       .  A
C629        C634   1.403       .  A
C629        H636   1.083       .  S
C630        C631   1.411       .  A
C631        C632   1.406       .  A
C631       Br638   1.898       .  S
C632        C633   1.406       .  A
C632        H637   1.083       .  S
C633        C634   1.410       .  A
C634       Br635   1.910       .  S
C639        C640   1.406       .  A
C639        C644   1.408       .  A
C639        H646   1.082       .  S
C640        C641   1.422       .  A
C641        C642   1.387       .  A
C641       Br648   1.919       .  S
C642        C643   1.397       .  A
C642        H647   1.084   1_545  S
C643        C644   1.420       .  A
C644       Br645   1.920       .  S
C649        C650   1.389       .  A
C649        C654   1.385       .  A
C649        H656   1.084       .  S
C650        C651   1.406       .  A
C651        C652   1.385       .  A
C651       Br658   1.923       .  S
C652        C653   1.400       .  A
C652        H657   1.084       .  S
C653        C654   1.421       .  A
C654       Br655   1.926   1_565  S
C659        C660   1.394       .  A
C659        C664   1.398   1_565  A
C659        H666   1.078   1_565  S
C660        C661   1.411       .  A
C661        C662   1.413       .  A
C661       Br668   1.914       .  S
C662        C663   1.413   1_565  A
C662        H667   1.083       .  S
C663        C664   1.402       .  A
C664       Br665   1.904   1_545  S
C669        C670   1.417       .  A
C669        C674   1.407       .  A
C669        H676   1.083       .  S
C670        C671   1.411       .  A
C671        C672   1.391       .  A
C671       Br678   1.905       .  S
C672        C673   1.404       .  A
C672        H677   1.084       .  S
C673        C674   1.404       .  A
C674       Br675   1.916       .  S
C679        C680   1.399       .  A
C679        C684   1.393   1_554  A
C679        H686   1.084   1_554  S
C680        C681   1.423       .  A
C681        C682   1.405       .  A
C681       Br688   1.911       .  S
C682        C683   1.404   1_554  A
C682        H687   1.083       .  S
C683        C684   1.416       .  A
C684       Br685   1.905       .  S
C689        C690   1.398       .  A
C689        C694   1.396       .  A
C689        H696   1.083       .  S
C690        C691   1.413       .  A
C691        C692   1.410       .  A
C691       Br698   1.913       .  S
C692        C693   1.411       .  A
C692        H697   1.081       .  S
C693        C694   1.423       .  A
C694       Br695   1.919       .  S
C699        C700   1.407       .  A
C699        C704   1.400   1_554  A
C699        H706   1.083   1_554  S
C700        C701   1.409       .  A
C701        C702   1.376       .  A
C701       Br708   1.915       .  S
C702        C703   1.400   1_554  A
C702        H707   1.084       .  S
C703        C704   1.409       .  A
C704       Br705   1.910       .  S
C709        C710   1.394       .  A
C709        C714   1.395       .  A
C709        H716   1.059       .  S
C710        C711   1.407       .  A
C711        C712   1.396       .  A
C711       Br718   1.918       .  S
C712        C713   1.417       .  A
C712        H717   1.083       .  S
C713        C714   1.411       .  A
C714       Br715   1.926       .  S
C719        C720   1.405   1_655  A
C719        C724   1.402       .  A
C719        H726   1.082       .  S
C720        C721   1.412       .  A
C721        C722   1.407       .  A
C721       Br728   1.914       .  S
C722        C723   1.410       .  A
C722        H727   1.083       .  S
C723        C724   1.420   1_455  A
C724       Br725   1.920       .  S
C729        C730   1.400   1_455  A
C729        C734   1.394       .  A
C729        H736   1.084       .  S
C730        C731   1.407       .  A
C731        C732   1.394       .  A
C731       Br738   1.923       .  S
C732        C733   1.407   1_655  A
C732        H737   1.083       .  S
C733        C734   1.419       .  A
C734       Br735   1.924       .  S
C739        C740   1.399       .  A
C739        C744   1.395       .  A
C739        H746   1.084       .  S
C740        C741   1.400       .  A
C741        C742   1.389       .  A
C741       Br748   1.917       .  S
C742        C743   1.412       .  A
C742        H747   1.083       .  S
C743        C744   1.419       .  A
C744       Br745   1.914       .  S
