geometry optimzed in LAMMPS
_audit_creation_date              2020-11-30 
_audit_creation_method            'lammps2cif' 
_symmetry_space_group_name_H-M    'P1' 
_symmetry_Int_Tables_number       1 
_symmetry_cell_setting            triclinic 
loop_ 
_symmetry_equiv_pos_as_xyz 
  x,y,z 
_cell_length_a                    92.587732 
_cell_length_b                    92.35294129562729 
_cell_length_c                    92.50964625175966 
_cell_angle_alpha                 89.99481812946792 
_cell_angle_beta                  90.0351138651635 
_cell_angle_gamma                 90.10515435599551 
loop_ 
_atom_site_label 
_atom_site_type_symbol 
_atom_site_fract_x 
_atom_site_fract_y 
_atom_site_fract_z 
_atom_site_charge 
N1          N  0.74713667  0.89682610  0.39848380    -0.02100
C2          C  0.75375601  0.88370588  0.39893082     0.00500
C3          C  0.75142923  0.87636621  0.38609746    -0.22400
C4          C  0.74310036  0.88521228  0.37752906    -0.22600
C5          C  0.74060327  0.89771342  0.38535951     0.00400
H6          H  0.75518692  0.86563226  0.38332442     0.14200
H7          H  0.73943459  0.88284223  0.36667306     0.14200
N8          N  0.75312398  0.89615054  0.60241547    -0.02100
C9          C  0.75989343  0.88310777  0.60241043     0.00500
C10         C  0.75885826  0.87673601  0.61590391    -0.22400
C11         C  0.75122738  0.88615715  0.62450462    -0.22600
C12         C  0.74798922  0.89804941  0.61604232     0.00400
H13         H  0.76300356  0.86626544  0.61910011     0.14200
H14         H  0.74847624  0.88457867  0.63576331     0.14200
N15         N  0.73916046  0.10457017  0.39976731    -0.02100
C16         C  0.73264825  0.10339902  0.38667771     0.00500
C17         C  0.73410106  0.11620421  0.37906804    -0.22400
C18         C  0.74188539  0.12550709  0.38774069    -0.22600
C19         C  0.74478113  0.11813261  0.40042761     0.00400
H20         H  0.73022371  0.11842613  0.36825702     0.14200
H21         H  0.74505100  0.13647703  0.38509679     0.14200
N22         N  0.73921116  0.10959617  0.59658417    -0.02100
C23         C  0.73112445  0.10864952  0.60877694     0.00500
C24         C  0.72916658  0.12233180  0.61458920    -0.22400
C25         C  0.73618692  0.13194576  0.60557335    -0.22600
C26         C  0.74227837  0.12379358  0.59465237     0.00400
H27         H  0.72310395  0.12507431  0.62419955     0.14200
H28         H  0.73692202  0.14356113  0.60693790     0.14200
N29         N  0.74836372  0.00041473  0.47903451    -0.35200
N30         N  0.74926200  0.02289604  0.50100698    -0.55800
N31         N  0.75110563  0.00107138  0.52330241    -0.35200
N32         N  0.74888039  0.97853986  0.50126064    -0.55800
C33         C  0.74403169  0.01211616  0.47141395     0.28400
C34         C  0.74417419  0.98854958  0.47153451     0.28400
C35         C  0.74837674  0.01293009  0.53143200     0.28400
C36         C  0.74830600  0.98934704  0.53158790     0.28400
C37         C  0.75097458  0.03112451  0.48906975     0.37000
C38         C  0.75236183  0.03148183  0.51241756     0.37000
C39         C  0.75116665  0.97010280  0.48954345     0.37000
C40         C  0.75238392  0.97044771  0.51289454     0.37000
C41         C  0.73694509  0.00764760  0.45896910    -0.20500
C42         C  0.73703487  0.99274887  0.45904854    -0.20500
C43         C  0.74403536  0.00869017  0.54514259    -0.20500
C44         C  0.74396810  0.99378521  0.54523286    -0.20500
C45         C  0.75531368  0.04498703  0.49290617    -0.21600
C46         C  0.75606128  0.04524691  0.50772727    -0.21600
C47         C  0.75624396  0.95663807  0.49375413    -0.21600
C48         C  0.75691404  0.95682380  0.50857391    -0.21600
C49         C  0.74718719  0.02666743  0.47495800    -0.16900
C50         C  0.74755993  0.97410522  0.47525292    -0.16900
C51         C  0.75043006  0.97479704  0.52738225    -0.16900
C52         C  0.75043402  0.02742668  0.52699038    -0.16900
H53         H  0.73232082  0.01442067  0.45062130     0.16000
H54         H  0.73249434  0.98580030  0.45078662     0.16000
H55         H  0.74130934  0.01560040  0.55418361     0.16000
H56         H  0.74117379  0.98699431  0.55435159     0.16000
H57         H  0.75734675  0.05408066  0.48581021     0.14300
H58         H  0.75875247  0.05456589  0.51429828     0.14300
H59         H  0.75898170  0.94755290  0.48690588     0.14300
H60         H  0.76024409  0.94791437  0.51540177     0.14300
H61         H  0.75532264  0.00053574  0.48787367     0.27500
H62         H  0.75604660  0.00094332  0.51322068     0.27500
N63         N  0.89613106  0.74322790  0.39884688    -0.02100
C64         C  0.89713475  0.73670478  0.38577401     0.00500
C65         C  0.88479786  0.73935721  0.37775469    -0.22400
C66         C  0.87602592  0.74799000  0.38618227    -0.22600
C67         C  0.88325770  0.75013408  0.39908851     0.00400
H68         H  0.88259685  0.73577842  0.36683437     0.14200
H69         H  0.86553429  0.75221165  0.38323388     0.14200
N70         N  0.89988943  0.75277040  0.60409611    -0.02100
C71         C  0.90061972  0.74729508  0.61766363     0.00500
C72         C  0.88770186  0.74960407  0.62480026    -0.22400
C73         C  0.87875313  0.75673455  0.61523154    -0.22600
C74         C  0.88651324  0.75846336  0.60259373     0.00400
H75         H  0.88501389  0.74628277  0.63569063     0.14200
H76         H  0.86776145  0.76015713  0.61722150     0.14200
N77         N  0.10570840  0.73934058  0.39953271    -0.02100
C78         C  0.10490577  0.73361086  0.38603738     0.00500
C79         C  0.11733708  0.73684261  0.37842318    -0.22400
C80         C  0.12606650  0.74474665  0.38757196    -0.22600
C81         C  0.11865980  0.74624181  0.40049878     0.00400
H82         H  0.11968489  0.73402170  0.36731762     0.14200
H83         H  0.13642129  0.74942952  0.38480645     0.14200
N84         N  0.09426292  0.75905269  0.60932175    -0.02100
C85         C  0.09208232  0.75579257  0.62342503     0.00500
C86         C  0.10253949  0.76225144  0.63190413    -0.22400
C87         C  0.11151736  0.76969849  0.62264405    -0.22600
C88         C  0.10619401  0.76761990  0.60878683     0.00400
H89         H  0.10354910  0.76159143  0.64354071     0.14200
H90         H  0.12075262  0.77617541  0.62576953     0.14200
N91         N  0.97876637  0.74166961  0.49992341    -0.35200
N92         N  0.00088618  0.74043450  0.47767520    -0.55800
N93         N  0.02297999  0.74011440  0.50000638    -0.35200
N94         N  0.00080949  0.74222103  0.52205620    -0.55800
C95         C  0.97101865  0.74507149  0.48799300     0.28400
C96         C  0.97087602  0.74571857  0.51155840     0.28400
C97         C  0.03118938  0.74207790  0.48808866     0.28400
C98         C  0.03116339  0.74378432  0.51156439     0.28400
C99         C  0.98907400  0.73798311  0.46944367     0.37000
C100        C  0.01244285  0.73680820  0.46953932     0.37000
C101        C  0.98910663  0.74078900  0.53065107     0.37000
C102        C  0.01248303  0.74061808  0.53066043     0.37000
C103        C  0.95808471  0.75141107  0.49210521    -0.20500
C104        C  0.95790682  0.75163534  0.50695326    -0.20500
C105        C  0.04484500  0.74679002  0.49213091    -0.20500
C106        C  0.04481652  0.74789261  0.50694886    -0.20500
C107        C  0.99315216  0.73270771  0.45601625    -0.21600
C108        C  0.00798466  0.73209087  0.45603635    -0.21600
C109        C  0.99338288  0.73832017  0.54480816    -0.21600
C110        C  0.00818990  0.73823965  0.54481269    -0.21600
C111        C  0.97480549  0.74154090  0.47357758    -0.16900
C112        C  0.97475754  0.74339310  0.52618038    -0.16900
C113        C  0.02690511  0.74272391  0.52619239    -0.16900
C114        C  0.02695374  0.73887365  0.47376377    -0.16900
H115        H  0.94951008  0.75525398  0.48514491     0.16000
H116        H  0.94912332  0.75562065  0.51353358     0.16000
H117        H  0.05395249  0.74906620  0.48515822     0.16000
H118        H  0.05389499  0.75116401  0.51356811     0.16000
H119        H  0.98620132  0.72983060  0.44705350     0.14300
H120        H  0.01471880  0.72870493  0.44709871     0.14300
H121        H  0.98660512  0.73722751  0.55426768     0.14300
H122        H  0.01499927  0.73696960  0.55423820     0.14300
H123        H  0.98802740  0.73532986  0.50014892     0.27500
H124        H  0.01295743  0.73506572  0.50029957     0.27500
N125        N  0.24808941  0.89293924  0.39808918    -0.02100
C126        C  0.25560778  0.89275298  0.38551757     0.00500
C127        C  0.25493782  0.87920586  0.37923930    -0.22400
C128        C  0.24661950  0.87074159  0.38824541    -0.22600
C129        C  0.24263652  0.87939160  0.39978432     0.00400
H130        H  0.25983187  0.87589428  0.36915010     0.14200
H131        H  0.24402716  0.85941576  0.38670497     0.14200
N132        N  0.24038134  0.89876947  0.60649871    -0.02100
C133        C  0.24546289  0.90015362  0.62020996     0.00500
C134        C  0.24176837  0.88811805  0.62830280    -0.22400
C135        C  0.23434388  0.87893806  0.61922493    -0.22600
C136        C  0.23367920  0.88567111  0.60587509     0.00400
H137        H  0.24458695  0.88599633  0.63945658     0.14200
H138        H  0.22996282  0.86844819  0.62206779     0.14200
N139        N  0.25727465  0.10105280  0.39703232    -0.02100
C140        C  0.25168717  0.11462863  0.39797809     0.00500
C141        C  0.25318569  0.12163752  0.38480670    -0.22400
C142        C  0.25985391  0.11210062  0.37555472    -0.22600
C143        C  0.26224212  0.09956610  0.38333110     0.00400
H144        H  0.24937779  0.13233951  0.38198972     0.14200
H145        H  0.26252670  0.11405888  0.36433653     0.14200
N146        N  0.25744119  0.10344928  0.59923389    -0.02100
C147        C  0.25326849  0.11736745  0.59747815     0.00500
C148        C  0.25838618  0.12578346  0.60875742    -0.22400
C149        C  0.26602322  0.11664531  0.61773461    -0.22600
C150        C  0.26523663  0.10302967  0.61159799     0.00400
H151        H  0.25666560  0.13725970  0.61034792     0.14200
H152        H  0.27154170  0.11959890  0.62762096     0.14200
N153        N  0.24496807  0.99768701  0.47727658    -0.35200
N154        N  0.24629015  0.02016394  0.49925462    -0.55800
N155        N  0.24486096  0.99822640  0.52171366    -0.35200
N156        N  0.24502546  0.97560541  0.49979783    -0.55800
C157        C  0.24864515  0.00927848  0.46908227     0.28400
C158        C  0.24763882  0.98566961  0.46934268     0.28400
C159        C  0.24826497  0.00999469  0.52974361     0.28400
C160        C  0.24716710  0.98642826  0.53005725     0.28400
C161        C  0.24482540  0.02863928  0.48744558     0.37000
C162        C  0.24472383  0.02891282  0.51084968     0.37000
C163        C  0.24240114  0.96710477  0.48818971     0.37000
C164        C  0.24229068  0.96740462  0.51159650     0.37000
C165        C  0.25350735  0.00457273  0.45571287    -0.20500
C166        C  0.25292169  0.98968877  0.45589321    -0.20500
C167        C  0.25260266  0.00561628  0.54341840    -0.20500
C168        C  0.25191315  0.99074468  0.54361268    -0.20500
C169        C  0.24234968  0.04285638  0.49155231    -0.21600
C170        C  0.24229149  0.04303045  0.50638778    -0.21600
C171        C  0.23806280  0.95343604  0.49265539    -0.21600
C172        C  0.23805202  0.95361211  0.50748157    -0.21600
C173        C  0.24712940  0.02399755  0.47308895    -0.16900
C174        C  0.24478662  0.97121114  0.47364648    -0.16900
C175        C  0.24433689  0.97192640  0.52604099    -0.16900
C176        C  0.24680087  0.02459045  0.52534715    -0.16900
H177        H  0.25708420  0.01117065  0.44672773     0.16000
H178        H  0.25601172  0.98263641  0.44708341     0.16000
H179        H  0.25580526  0.01242169  0.55239284     0.16000
H180        H  0.25451648  0.98389532  0.55274178     0.16000
H181        H  0.24108335  0.05219356  0.48459711     0.14300
H182        H  0.24096395  0.05252689  0.51310850     0.14300
H183        H  0.23529595  0.94424204  0.48594521     0.14300
H184        H  0.23529485  0.94459535  0.51443396     0.14300
H185        H  0.23951361  0.99798955  0.48707598     0.27500
H186        H  0.23972937  0.99829025  0.51173729     0.27500
N187        N  0.39182866  0.90170905  0.23226430    -0.02100
C188        C  0.39287779  0.88942068  0.22430212     0.00500
C189        C  0.37929415  0.88338958  0.22245263    -0.22400
C190        C  0.36965300  0.89230797  0.22948500    -0.22600
C191        C  0.37766414  0.90344205  0.23546543     0.00400
H192        H  0.37664063  0.87361437  0.21656881     0.14200
H193        H  0.35811993  0.89064469  0.23043314     0.14200
N194        N  0.60687797  0.89573036  0.24213628    -0.02100
C195        C  0.60600151  0.88323073  0.23450790     0.00500
C196        C  0.61915785  0.87615887  0.23480462    -0.22400
C197        C  0.62838204  0.88462801  0.24295818    -0.22600
C198        C  0.62059491  0.89666835  0.24718825     0.00400
H199        H  0.62173855  0.86591545  0.22975988     0.14200
H200        H  0.63961869  0.88240158  0.24527236     0.14200
N201        N  0.39388689  0.09192929  0.23886385    -0.02100
C202        C  0.39404509  0.10482208  0.23186922     0.00500
C203        C  0.38035617  0.11076250  0.23167359    -0.22400
C204        C  0.37143116  0.10106725  0.23865976    -0.22600
C205        C  0.38003056  0.08964220  0.24301472     0.00400
H206        H  0.37716024  0.12088003  0.22672508     0.14200
H207        H  0.35994509  0.10225703  0.24045219     0.14200
N208        N  0.60284388  0.09832167  0.24113084    -0.02100
C209        C  0.60153577  0.11173965  0.23528191     0.00500
C210        C  0.61421078  0.11946053  0.23737861    -0.22400
C211        C  0.62356656  0.11047185  0.24470213    -0.22600
C212        C  0.61625871  0.09763255  0.24692601     0.00400
H213        H  0.61640325  0.13046851  0.23401071     0.14200
H214        H  0.63434444  0.11315220  0.24837022     0.14200
N215        N  0.47929122  0.99529319  0.25125126    -0.35200
N216        N  0.50148512  0.01748696  0.25310435    -0.55800
N217        N  0.52311757  0.99476356  0.25285645    -0.35200
N218        N  0.50094146  0.97247969  0.25257841    -0.55800
C219        C  0.47098796  0.00716353  0.25323802     0.28400
C220        C  0.47069261  0.98356434  0.25293627     0.28400
C221        C  0.53132511  0.00642850  0.25615935     0.28400
C222        C  0.53099512  0.98287021  0.25600653     0.28400
C223        C  0.49003161  0.02603431  0.25016528     0.37000
C224        C  0.51337932  0.02567715  0.25089701     0.37000
C225        C  0.48925369  0.96436638  0.24921322     0.37000
C226        C  0.51263464  0.96410173  0.25010194     0.37000
C227        C  0.45692390  0.00292776  0.25621308    -0.20500
C228        C  0.45673118  0.98804547  0.25601021    -0.20500
C229        C  0.54454316  0.00192727  0.26154434    -0.20500
C230        C  0.54430053  0.98703956  0.26154964    -0.20500
C231        C  0.49465182  0.03982806  0.24646322    -0.21600
C232        C  0.50947015  0.03959583  0.24690253    -0.21600
C233        C  0.49350731  0.95064379  0.24492796    -0.21600
C234        C  0.50833406  0.95050846  0.24537576    -0.21600
C235        C  0.47544694  0.02167079  0.25114890    -0.16900
C236        C  0.47477857  0.96903290  0.25038487    -0.16900
C237        C  0.52708527  0.96846582  0.25255314    -0.16900
C238        C  0.52768862  0.02093240  0.25310237    -0.16900
H239        H  0.44766572  0.00984278  0.25798165     0.16000
H240        H  0.44727738  0.98131773  0.25756993     0.16000
H241        H  0.55353277  0.00866548  0.26485011     0.16000
H242        H  0.55309097  0.98007129  0.26485518     0.16000
H243        H  0.48804308  0.04907344  0.24367890     0.14300
H244        H  0.51654404  0.04864695  0.24459149     0.14300
H245        H  0.48665679  0.94170270  0.24169456     0.14300
H246        H  0.51512626  0.94143663  0.24249721     0.14300
H247        H  0.48964986  0.99521984  0.24705956     0.27500
H248        H  0.51369731  0.99492038  0.24677992     0.27500
N249        N  0.39348441  0.75450662  0.89558153    -0.02100
C250        C  0.39451575  0.76181229  0.88286584     0.00500
C251        C  0.38093925  0.76301545  0.87666245    -0.22400
C252        C  0.37130814  0.75639144  0.88591968    -0.22600
C253        C  0.37932931  0.75119558  0.89737635     0.00400
H254        H  0.37829110  0.76825878  0.86654271     0.14200
H255        H  0.35978286  0.75524905  0.88432699     0.14200
N256        N  0.60315441  0.74844343  0.89550380    -0.02100
C257        C  0.60313855  0.75679443  0.88346293     0.00500
C258        C  0.61695198  0.75745299  0.87774998    -0.22400
C259        C  0.62570758  0.74941720  0.88677545    -0.22600
C260        C  0.61691381  0.74408261  0.89760164     0.00400
H261        H  0.62034831  0.76328973  0.86819234     0.14200
H262        H  0.63724458  0.74789342  0.88572763     0.14200
N263        N  0.39476069  0.75306055  0.09840973    -0.02100
C264        C  0.39610875  0.76035118  0.11103342     0.00500
C265        C  0.38372343  0.75881613  0.11924825    -0.22400
C266        C  0.37442732  0.75020613  0.11137767    -0.22600
C267        C  0.38145605  0.74693147  0.09861413     0.00400
H268        H  0.38176900  0.76325355  0.12989373     0.14200
H269        H  0.36364805  0.74691865  0.11450346     0.14200
N270        N  0.60026861  0.74506103  0.09822783    -0.02100
C271        C  0.59901313  0.75057708  0.11180482     0.00500
C272        C  0.61177914  0.74858838  0.11931502    -0.22400
C273        C  0.62113954  0.74164256  0.11010382    -0.22600
C274        C  0.61383048  0.73949394  0.09722534     0.00400
H275        H  0.61415398  0.75203080  0.13024223     0.14200
H276        H  0.63207261  0.73836419  0.11261510     0.14200
N277        N  0.49733578  0.73784237  0.97301307    -0.35200
N278        N  0.51971422  0.74043665  0.99494973    -0.55800
N279        N  0.49764245  0.74068744  0.01758298    -0.35200
N280        N  0.47528149  0.73964307  0.99563092    -0.55800
C281        C  0.50891648  0.74033053  0.96441887     0.28400
C282        C  0.48536800  0.73967237  0.96481808     0.28400
C283        C  0.50951926  0.74396028  0.02547196     0.28400
C284        C  0.48595749  0.74402089  0.02573525     0.28400
C285        C  0.52829708  0.73881280  0.98323313     0.37000
C286        C  0.52844407  0.73978057  0.00665414     0.37000
C287        C  0.46666368  0.73699155  0.98414516     0.37000
C288        C  0.46678497  0.73880802  0.00748076     0.37000
C289        C  0.50420480  0.74321090  0.95046222    -0.20500
C290        C  0.48938679  0.74290133  0.95074293    -0.20500
C291        C  0.50534837  0.74910740  0.03891323    -0.20500
C292        C  0.49051234  0.74926088  0.03903771    -0.20500
C293        C  0.54257693  0.73737787  0.98755466    -0.21600
C294        C  0.54264955  0.73788706  0.00235663    -0.21600
C295        C  0.45263158  0.73442765  0.98870900    -0.21600
C296        C  0.45272002  0.73550609  0.00349197    -0.21600
C297        C  0.52362415  0.73967264  0.96866876    -0.16900
C298        C  0.47089246  0.73827509  0.96953602    -0.16900
C299        C  0.47129133  0.74205967  0.02173463    -0.16900
C300        C  0.52403764  0.74201333  0.02111444    -0.16900
H301        H  0.51070075  0.74534462  0.94098359     0.16000
H302        H  0.48238074  0.74482408  0.94157337     0.16000
H303        H  0.51226684  0.75252044  0.04771354     0.16000
H304        H  0.48385992  0.75284317  0.04795624     0.16000
H305        H  0.55205076  0.73634009  0.98080326     0.14300
H306        H  0.55215105  0.73731243  0.00915334     0.14300
H307        H  0.44325048  0.73227289  0.98205322     0.14300
H308        H  0.44342021  0.73427417  0.01046824     0.14300
H309        H  0.49756556  0.73395732  0.98351651     0.27500
H310        H  0.49757905  0.73515697  0.00783117     0.27500
N311        N  0.39767626  0.89120521  0.74325710    -0.02100
C312        C  0.39838238  0.87796577  0.74953494     0.00500
C313        C  0.38609363  0.87005638  0.74630918    -0.22400
C314        C  0.37766909  0.87868074  0.73753901    -0.22600
C315        C  0.38504622  0.89160375  0.73586550     0.00400
H316        H  0.38366570  0.85910449  0.74969991     0.14200
H317        H  0.36722099  0.87590955  0.73306821     0.14200
N318        N  0.60131119  0.89731649  0.74532813    -0.02100
C319        C  0.60085283  0.88430282  0.75204542     0.00500
C320        C  0.61368515  0.87697097  0.74992781    -0.22400
C321        C  0.62223581  0.88576544  0.74142569    -0.22600
C322        C  0.61437615  0.89821353  0.73880764     0.00400
H323        H  0.61637510  0.86625065  0.75379643     0.14200
H324        H  0.63301924  0.88337071  0.73761849     0.14200
N325        N  0.39676963  0.10304694  0.74218971    -0.02100
C326        C  0.39832945  0.11619560  0.74834515     0.00500
C327        C  0.38597134  0.12432484  0.74639782    -0.22400
C328        C  0.37642190  0.11571086  0.73877095    -0.22600
C329        C  0.38342252  0.10272172  0.73623250     0.00400
H330        H  0.38413942  0.13530373  0.75003521     0.14200
H331        H  0.36572927  0.11874353  0.73515993     0.14200
N332        N  0.59810993  0.10421862  0.73697845    -0.02100
C333        C  0.59805838  0.11791304  0.74228465     0.00500
C334        C  0.61085121  0.12488015  0.73887833    -0.22400
C335        C  0.61897136  0.11519878  0.73102023    -0.22600
C336        C  0.61091983  0.10262109  0.73008149     0.00400
H337        H  0.61386748  0.13586295  0.74164314     0.14200
H338        H  0.62965979  0.11704804  0.72665892     0.14200
N339        N  0.49720832  0.97648316  0.74627092    -0.35200
N340        N  0.51921097  0.99932258  0.74591562    -0.55800
N341        N  0.49654372  0.02084312  0.74852319    -0.35200
N342        N  0.47454735  0.99797650  0.74735618    -0.55800
C343        C  0.50903076  0.96894032  0.74217831     0.28400
C344        C  0.48550669  0.96831629  0.74289969     0.28400
C345        C  0.50802637  0.02979786  0.74686476     0.28400
C346        C  0.48446650  0.02899701  0.74743808     0.28400
C347        C  0.52794587  0.98763522  0.74684146     0.37000
C348        C  0.52768105  0.01115144  0.74772947     0.37000
C349        C  0.46638219  0.98600096  0.74932468     0.37000
C350        C  0.46596651  0.00941086  0.75026735     0.37000
C351        C  0.50480790  0.95585632  0.73613535    -0.20500
C352        C  0.48997006  0.95548912  0.73653135    -0.20500
C353        C  0.50308367  0.04392023  0.74532178    -0.20500
C354        C  0.48829765  0.04338151  0.74551393    -0.20500
C355        C  0.54205949  0.99204895  0.74920159    -0.21600
C356        C  0.54194530  0.00689322  0.74945337    -0.21600
C357        C  0.45255971  0.98986844  0.75359677    -0.21600
C358        C  0.45224796  0.00471099  0.75399662    -0.21600
C359        C  0.52356075  0.97311475  0.74451867    -0.16900
C360        C  0.47096700  0.97174101  0.74621508    -0.16900
C361        C  0.47004999  0.02405788  0.74880202    -0.16900
C362        C  0.52283843  0.02573527  0.74717105    -0.16900
H363        H  0.51171887  0.94741177  0.73192265     0.16000
H364        H  0.48324053  0.94670035  0.73268748     0.16000
H365        H  0.50935634  0.05375521  0.74437022     0.16000
H366        H  0.48119646  0.05263754  0.74463350     0.16000
H367        H  0.55155639  0.98532776  0.75028489     0.14300
H368        H  0.55139726  0.01366361  0.75069060     0.14300
H369        H  0.44355236  0.98278684  0.75598817     0.14300
H370        H  0.44298519  0.01128710  0.75674891     0.14300
H371        H  0.49723944  0.98574385  0.75265234     0.27500
H372        H  0.49688864  0.01000410  0.75129550     0.27500
N373        N  0.39752959  0.24444115  0.89573307    -0.02100
C374        C  0.38525057  0.25239426  0.89578098     0.00500
C375        C  0.37893425  0.25223294  0.88224496    -0.22400
C376        C  0.38765419  0.24383200  0.87358227    -0.22600
C377        C  0.39904856  0.23925790  0.88211585     0.00400
H378        H  0.36905634  0.25759381  0.87903531     0.14200
H379        H  0.38607797  0.24167013  0.86219364     0.14200
N380        N  0.59782601  0.25196792  0.89484605    -0.02100
C381        C  0.61162549  0.25652736  0.89642709     0.00500
C382        C  0.61907708  0.25509976  0.88359094    -0.22400
C383        C  0.60940046  0.24960134  0.87369179    -0.22600
C384        C  0.59639364  0.24775652  0.88087451     0.00400
H385        H  0.63026325  0.25787363  0.88161216     0.14200
H386        H  0.61171969  0.24693946  0.86254255     0.14200
N387        N  0.38986876  0.23686804  0.09803271    -0.02100
C388        C  0.37650646  0.24244624  0.09642797     0.00500
C389        C  0.36813770  0.23953321  0.10843931    -0.22400
C390        C  0.37680611  0.23190928  0.11787398    -0.22600
C391        C  0.39004475  0.23034795  0.11112413     0.00400
H392        H  0.35708224  0.24284579  0.11025716     0.14200
H393        H  0.37377467  0.22789943  0.12843866     0.14200
N394        N  0.60020056  0.24827281  0.10227905    -0.02100
C395        C  0.59906324  0.24207498  0.11548247     0.00500
C396        C  0.61118670  0.24500796  0.12369004    -0.22400
C397        C  0.62007098  0.25348210  0.11521439    -0.22600
C398        C  0.61307251  0.25525319  0.10211521     0.00400
H399        H  0.61325247  0.24152910  0.13466699     0.14200
H400        H  0.63060962  0.25762259  0.11816338     0.14200
N401        N  0.47532346  0.23457942  0.00013717    -0.35200
N402        N  0.49721876  0.23940060  0.02204165    -0.55800
N403        N  0.51937166  0.23905153  0.99979091    -0.35200
N404        N  0.49746999  0.23563692  0.97795336    -0.55800
C405        C  0.46712387  0.23864434  0.01152582     0.28400
C406        C  0.46725725  0.23644356  0.98808816     0.28400
C407        C  0.52660462  0.24443647  0.01129693     0.28400
C408        C  0.52654287  0.24334577  0.98776823     0.28400
C409        C  0.48575800  0.23652174  0.03061324     0.37000
C410        C  0.50907281  0.23811045  0.03045750     0.37000
C411        C  0.48621988  0.23048474  0.97021311     0.37000
C412        C  0.50943366  0.23330114  0.96993808     0.37000
C413        C  0.45364770  0.24302215  0.00670657    -0.20500
C414        C  0.45376831  0.24176124  0.99188510    -0.20500
C415        C  0.53846236  0.25230060  0.00660310    -0.20500
C416        C  0.53830908  0.25179865  0.99173325    -0.20500
C417        C  0.49030079  0.23347657  0.04454647    -0.21600
C418        C  0.50511243  0.23433822  0.04442217    -0.21600
C419        C  0.49104943  0.22463428  0.95730050    -0.21600
C420        C  0.50579286  0.22633307  0.95716381    -0.21600
C421        C  0.47123637  0.23761705  0.02618436    -0.16900
C422        C  0.47160460  0.23274494  0.97389725    -0.16900
C423        C  0.52323853  0.23884325  0.97348445    -0.16900
C424        C  0.52322013  0.24161605  0.02591362    -0.16900
H425        H  0.44466382  0.24673188  0.01319870     0.16000
H426        H  0.44487455  0.24437401  0.98476117     0.16000
H427        H  0.54638663  0.25782838  0.01321855     0.16000
H428        H  0.54612886  0.25689799  0.98468366     0.16000
H429        H  0.48363542  0.23099733  0.05383425     0.14300
H430        H  0.51210973  0.23265074  0.05363798     0.14300
H431        H  0.48457956  0.21995378  0.94873833     0.14300
H432        H  0.51294358  0.22311245  0.94849880     0.14300
H433        H  0.48526727  0.22936893  0.00068260     0.27500
H434        H  0.51106751  0.23144131  0.00026009     0.27500
N435        N  0.26362531  0.39936951  0.89061368    -0.02100
C436        C  0.26999954  0.38624110  0.89166469     0.00500
C437        C  0.27078961  0.37984838  0.87815084    -0.22400
C438        C  0.26458189  0.38938972  0.86852129    -0.22600
C439        C  0.26013711  0.40118560  0.87653134     0.00400
H440        H  0.27526570  0.36934272  0.87558770     0.14200
H441        H  0.26292329  0.38763201  0.85707513     0.14200
N442        N  0.25212609  0.60285120  0.89243021    -0.02100
C443        C  0.24663734  0.60166534  0.87887042     0.00500
C444        C  0.24914151  0.61425413  0.87117628    -0.22400
C445        C  0.25651717  0.62346438  0.88028922    -0.22600
C446        C  0.25809913  0.61626840  0.89330779     0.00400
H447        H  0.24613774  0.61642073  0.86007956     0.14200
H448        H  0.26018839  0.63430083  0.87774751     0.14200
N449        N  0.25086301  0.39489002  0.09858235    -0.02100
C450        C  0.25781923  0.38199308  0.09840008     0.00500
C451        C  0.25575402  0.37475571  0.11131948    -0.22400
C452        C  0.24710369  0.38348334  0.11972013    -0.22600
C453        C  0.24434796  0.39577296  0.11165939     0.00400
H454        H  0.25984748  0.36417141  0.11419762     0.14200
H455        H  0.24342415  0.38122754  0.13059159     0.14200
N456        N  0.24614922  0.60186991  0.09767275    -0.02100
C457        C  0.24025387  0.60080164  0.11106731     0.00500
C458        C  0.24265062  0.61346456  0.11869852    -0.22400
C459        C  0.25027446  0.62257564  0.10970056    -0.22600
C460        C  0.25243824  0.61514046  0.09691142     0.00400
H461        H  0.23917032  0.61586400  0.12960126     0.14200
H462        H  0.25404414  0.63336418  0.11230081     0.14200
N463        N  0.24742604  0.47663782  0.99519968    -0.35200
N464        N  0.24746383  0.49919186  0.97292172    -0.55800
N465        N  0.24512292  0.52113724  0.99510138    -0.35200
N466        N  0.24680301  0.49865513  0.01747321    -0.55800
C467        C  0.25083917  0.46865214  0.98341538     0.28400
C468        C  0.25008845  0.46838163  0.00702528     0.28400
C469        C  0.24807733  0.52955023  0.98348888     0.28400
C470        C  0.24763043  0.52925731  0.00699341     0.28400
C471        C  0.24667370  0.48741847  0.96428608     0.37000
C472        C  0.24543515  0.51085069  0.96430948     0.37000
C473        C  0.24501213  0.48686819  0.02597132     0.37000
C474        C  0.24392995  0.51029081  0.02583775     0.37000
C475        C  0.25540433  0.45503628  0.98783184    -0.20500
C476        C  0.25504948  0.45491736  0.00267513    -0.20500
C477        C  0.25233353  0.54320624  0.98808168    -0.20500
C478        C  0.25200465  0.54303567  0.00290897    -0.20500
C479        C  0.24427374  0.49166289  0.95009397    -0.21600
C480        C  0.24333877  0.50646908  0.95014108    -0.21600
C481        C  0.24105129  0.49107447  0.03980043    -0.21600
C482        C  0.24043611  0.50591187  0.03972929    -0.21600
C483        C  0.24929754  0.47300310  0.96877165    -0.16900
C484        C  0.24760060  0.47240669  0.02162284    -0.16900
C485        C  0.24540706  0.52485292  0.02143248    -0.16900
C486        C  0.24663132  0.52542570  0.96883995    -0.16900
H487        H  0.25859130  0.44600803  0.98111383     0.16000
H488        H  0.25803443  0.44586558  0.00947141     0.16000
H489        H  0.25539354  0.55236584  0.98145126     0.16000
H490        H  0.25469936  0.55205219  0.00988862     0.16000
H491        H  0.24352286  0.48487047  0.94059804     0.14300
H492        H  0.24163688  0.51322886  0.94073939     0.14300
H493        H  0.23887979  0.48419923  0.04902073     0.14300
H494        H  0.23780164  0.51270808  0.04888462     0.14300
H495        H  0.24219476  0.48655975  0.99509629     0.27500
H496        H  0.24022826  0.51100840  0.99495725     0.27500
N497        N  0.90171011  0.38986364  0.75648621    -0.02100
C498        C  0.88851643  0.38993729  0.76280710     0.00500
C499        C  0.88202514  0.37652512  0.76140623    -0.22400
C500        C  0.89151792  0.36798018  0.75374985    -0.22600
C501        C  0.90354684  0.37642535  0.75090011     0.00400
H502        H  0.87133362  0.37347017  0.76502640     0.14200
H503        H  0.88976031  0.35687316  0.75045223     0.14200
N504        N  0.89268143  0.59842314  0.74717469    -0.02100
C505        C  0.87921832  0.59766014  0.75300845     0.00500
C506        C  0.87157615  0.61017456  0.75007875    -0.22400
C507        C  0.88054173  0.61895611  0.74212691    -0.22600
C508        C  0.89339654  0.61155249  0.74054478     0.00400
H509        H  0.86057855  0.61256957  0.75321941     0.14200
H510        H  0.87804674  0.62968831  0.73815757     0.14200
N511        N  0.10290097  0.39423019  0.75036224    -0.02100
C512        C  0.11611972  0.39462481  0.75674459     0.00500
C513        C  0.12359998  0.38202920  0.75362571    -0.22400
C514        C  0.11467298  0.37364160  0.74514009    -0.22600
C515        C  0.10199602  0.38132018  0.74343031     0.00400
H516        H  0.13447285  0.37930737  0.75693369     0.14200
H517        H  0.11708631  0.36301184  0.74086233     0.14200
N518        N  0.10220855  0.60015045  0.75138623    -0.02100
C519        C  0.11539028  0.59869008  0.75768523     0.00500
C520        C  0.12293713  0.61160052  0.75673269    -0.22400
C521        C  0.11407361  0.62131424  0.74975373    -0.22600
C522        C  0.10144550  0.61400052  0.74645104     0.00400
H523        H  0.13367565  0.61377932  0.76082607     0.14200
H524        H  0.11663650  0.63246836  0.74723035     0.14200
N525        N  0.97751150  0.49802987  0.75262109    -0.35200
N526        N  0.99993242  0.47552523  0.75188709    -0.55800
N527        N  0.02182906  0.49765858  0.74905763    -0.35200
N528        N  0.99940870  0.52007270  0.74809008    -0.55800
C529        C  0.96923339  0.48594530  0.75177786     0.28400
C530        C  0.96892152  0.50953935  0.74964391     0.28400
C531        C  0.02984478  0.48568826  0.74643870     0.28400
C532        C  0.02966669  0.50922496  0.74472765     0.28400
C533        C  0.98850142  0.46755146  0.75628313     0.37000
C534        C  0.01181697  0.46733845  0.75423011     0.37000
C535        C  0.98786735  0.52888393  0.74986179     0.37000
C536        C  0.01128002  0.52862032  0.74854774     0.37000
C537        C  0.95515972  0.48984722  0.74846932    -0.20500
C538        C  0.95490783  0.50466524  0.74737580    -0.20500
C539        C  0.04293430  0.48973556  0.74035024    -0.20500
C540        C  0.04286804  0.50459744  0.73938555    -0.20500
C541        C  0.99315645  0.45426000  0.76146716    -0.21600
C542        C  0.00791914  0.45412900  0.76017168    -0.21600
C543        C  0.99247398  0.54313803  0.75107942    -0.21600
C544        C  0.00727227  0.54294470  0.75041156    -0.21600
C545        C  0.97384601  0.47154773  0.75453724    -0.16900
C546        C  0.97321285  0.52434429  0.74955415    -0.16900
C547        C  0.02563967  0.52388593  0.74635672    -0.16900
C548        C  0.02604609  0.47133694  0.75031492    -0.16900
H549        H  0.94590775  0.48280914  0.74710734     0.16000
H550        H  0.94535339  0.51101397  0.74521777     0.16000
H551        H  0.05172643  0.48273903  0.73712847     0.16000
H552        H  0.05158788  0.51124976  0.73528535     0.16000
H553        H  0.98657553  0.44550533  0.76562737     0.14300
H554        H  0.01495560  0.44528174  0.76317971     0.14300
H555        H  0.98593226  0.55275935  0.75218592     0.14300
H556        H  0.01425981  0.55234036  0.75092280     0.14300
H557        H  0.98806121  0.49844972  0.75636137     0.27500
H558        H  0.01239773  0.49811441  0.75510222     0.27500
N559        N  0.75405454  0.38670839  0.89509360    -0.02100
C560        C  0.76140490  0.38691170  0.88243557     0.00500
C561        C  0.76071739  0.37336913  0.87603740    -0.22400
C562        C  0.75253042  0.36470667  0.88504878    -0.22600
C563        C  0.74860128  0.37320932  0.89668731     0.00400
H564        H  0.76526153  0.37022465  0.86573582     0.14200
H565        H  0.74974275  0.35346024  0.88329124     0.14200
N566        N  0.75303852  0.59756525  0.89566563    -0.02100
C567        C  0.74795580  0.61116843  0.89736288     0.00500
C568        C  0.75206114  0.61973441  0.88580479    -0.22400
C569        C  0.76004555  0.61102258  0.87671442    -0.22600
C570        C  0.76031733  0.59744865  0.88299895     0.00400
H571        H  0.74945176  0.63102702  0.88412615     0.14200
H572        H  0.76466366  0.61410077  0.86641757     0.14200
N573        N  0.76320253  0.38793980  0.09376389    -0.02100
C574        C  0.77000105  0.38839708  0.10670069     0.00500
C575        C  0.77022132  0.37472482  0.11282307    -0.22400
C576        C  0.76334199  0.36559291  0.10322304    -0.22600
C577        C  0.75908590  0.37404994  0.09165678     0.00400
H578        H  0.77489985  0.37170636  0.12310983     0.14200
H579        H  0.76133713  0.35414054  0.10469520     0.14200
N580        N  0.75015792  0.59422952  0.09803177    -0.02100
C581        C  0.74467405  0.60776906  0.09620309     0.00500
C582        C  0.74733826  0.61605935  0.10837576    -0.22400
C583        C  0.75487144  0.60745783  0.11788607    -0.22600
C584        C  0.75637486  0.59410114  0.11133742     0.00400
H585        H  0.74429092  0.62723578  0.11008401     0.14200
H586        H  0.75872884  0.61057109  0.12848601     0.14200
N587        N  0.74720200  0.46987031  0.99488411    -0.35200
N588        N  0.74248726  0.49129324  0.97243046    -0.55800
N589        N  0.74217897  0.51408252  0.99397411    -0.35200
N590        N  0.74793381  0.49257210  0.01630101    -0.55800
C591        C  0.75016201  0.46200732  0.98295247     0.28400
C592        C  0.75276422  0.46262277  0.00628046     0.28400
C593        C  0.74298045  0.52208631  0.98172049     0.28400
C594        C  0.74583479  0.52282582  0.00515319     0.28400
C595        C  0.74049789  0.47910673  0.96462202     0.37000
C596        C  0.73809958  0.50239084  0.96401433     0.37000
C597        C  0.74817348  0.48097851  0.02520961     0.37000
C598        C  0.74607796  0.50426717  0.02483081     0.37000
C599        C  0.75770898  0.44962136  0.98681699    -0.20500
C600        C  0.75924080  0.44995400  0.00158776    -0.20500
C601        C  0.74688979  0.53616208  0.98521614    -0.20500
C602        C  0.74848970  0.53667534  0.99997646    -0.20500
C603        C  0.73462781  0.48245278  0.95124005    -0.21600
C604        C  0.73318829  0.49723981  0.95082643    -0.21600
C605        C  0.74661596  0.48528148  0.03943962    -0.21600
C606        C  0.74545312  0.50001964  0.03923849    -0.21600
C607        C  0.74538185  0.46526089  0.96882918    -0.16900
C608        C  0.75126034  0.46673233  0.02085000    -0.16900
C609        C  0.74619552  0.51878347  0.01994259    -0.16900
C610        C  0.73991826  0.51715270  0.96751725    -0.16900
H611        H  0.76153063  0.44110496  0.97976048     0.16000
H612        H  0.76445851  0.44176034  0.00810949     0.16000
H613        H  0.74839319  0.54520417  0.97793032     0.16000
H614        H  0.75132086  0.54622855  0.00611767     0.16000
H615        H  0.73205119  0.47506246  0.94252867     0.14300
H616        H  0.72926993  0.50351579  0.94175832     0.14300
H617        H  0.74685429  0.47857493  0.04903204     0.14300
H618        H  0.74467783  0.50673377  0.04876963     0.14300
H619        H  0.74023865  0.47867103  0.99541725     0.27500
H620        H  0.73808379  0.50364669  0.99482918     0.27500
N621        N  0.89954231  0.38929444  0.24366239    -0.02100
C622        C  0.88681193  0.39035750  0.23651569     0.00500
C623        C  0.87912677  0.37755945  0.23778933    -0.22400
C624        C  0.88738610  0.36839639  0.24620987    -0.22600
C625        C  0.89987530  0.37588815  0.24957251     0.00400
H626        H  0.86857313  0.37523878  0.23331239     0.14200
H627        H  0.88468163  0.35743208  0.24933572     0.14200
N628        N  0.90148503  0.59850839  0.24359293    -0.02100
C629        C  0.88906093  0.59786813  0.23586777     0.00500
C630        C  0.88300162  0.61152310  0.23485860    -0.22400
C631        C  0.89214098  0.62085781  0.24205327    -0.22600
C632        C  0.90344623  0.61257864  0.24721535     0.00400
H633        H  0.87311482  0.61442323  0.22933632     0.14200
H634        H  0.89072719  0.63241692  0.24332075     0.14200
N635        N  0.10754844  0.39316854  0.24890722    -0.02100
C636        C  0.12088811  0.39413243  0.24300874     0.00500
C637        C  0.12856658  0.38153426  0.24538442    -0.22400
C638        C  0.11955947  0.37240847  0.25297367    -0.22600
C639        C  0.10681079  0.37987236  0.25499255     0.00400
H640        H  0.13940223  0.37914358  0.24172631     0.14200
H641        H  0.12203068  0.36156576  0.25664294     0.14200
N642        N  0.10103086  0.59951776  0.24630433    -0.02100
C643        C  0.11401922  0.59875411  0.23947054     0.00500
C644        C  0.12090601  0.61204765  0.24015961    -0.22400
C645        C  0.11196144  0.62119158  0.24777216    -0.22600
C646        C  0.09976750  0.61329551  0.25131926     0.00400
H647        H  0.13137968  0.61477421  0.23573272     0.14200
H648        H  0.11404630  0.63244755  0.25028590     0.14200
N649        N  0.97937945  0.49265178  0.25270991    -0.35200
N650        N  0.00197390  0.47079197  0.25159334    -0.55800
N651        N  0.02375806  0.49336167  0.25236859    -0.35200
N652        N  0.00119412  0.51519903  0.25229773    -0.55800
C653        C  0.97152717  0.48067439  0.24960186     0.28400
C654        C  0.97108628  0.50429986  0.24954817     0.28400
C655        C  0.03189247  0.48177376  0.24869963     0.28400
C656        C  0.03156466  0.50535220  0.24926773     0.28400
C657        C  0.99048271  0.46221507  0.25436603     0.37000
C658        C  0.01383003  0.46259504  0.25387734     0.37000
C659        C  0.98937591  0.52348484  0.25451754     0.37000
C660        C  0.01278348  0.52376180  0.25479603     0.37000
C661        C  0.95802727  0.48474234  0.24456631    -0.20500
C662        C  0.95769227  0.49961630  0.24466483    -0.20500
C663        C  0.04506147  0.48643731  0.24329808    -0.20500
C664        C  0.04484181  0.50133519  0.24361585    -0.20500
C665        C  0.99506757  0.44852766  0.25847363    -0.21600
C666        C  0.00988116  0.44874983  0.25808200    -0.21600
C667        C  0.99351603  0.53741807  0.25831966    -0.21600
C668        C  0.00831370  0.53752656  0.25870745    -0.21600
C669        C  0.97595945  0.46619221  0.25194241    -0.16900
C670        C  0.97500693  0.51897015  0.25183389    -0.16900
C671        C  0.02727686  0.51976480  0.25212508    -0.16900
C672        C  0.02809742  0.46715065  0.25109786    -0.16900
H673        H  0.94922766  0.47773655  0.24130744     0.16000
H674        H  0.94849879  0.50614478  0.24162023     0.16000
H675        H  0.05396053  0.47979821  0.23964059     0.16000
H676        H  0.05352997  0.50839426  0.24018272     0.16000
H677        H  0.98843257  0.43926896  0.26122057     0.14300
H678        H  0.01692815  0.43971290  0.26043753     0.14300
H679        H  0.98668386  0.54667842  0.26034295     0.14300
H680        H  0.01500735  0.54682898  0.26115111     0.14300
H681        H  0.98916407  0.49281557  0.25815213     0.27500
H682        H  0.01421310  0.49309135  0.25822494     0.27500
N683        N  0.89863271  0.25254855  0.39602336    -0.02100
C684        C  0.90013794  0.25761429  0.38232440     0.00500
C685        C  0.88780472  0.25479763  0.37438783    -0.22400
C686        C  0.87827999  0.24801360  0.38359703    -0.22600
C687        C  0.88517634  0.24670399  0.39681170     0.00400
H688        H  0.88582775  0.25764545  0.36321395     0.14200
H689        H  0.86748680  0.24437450  0.38092473     0.14200
N690        N  0.89462051  0.25030047  0.60089048    -0.02100
C691        C  0.89620111  0.25573727  0.61447417     0.00500
C692        C  0.88377663  0.25327151  0.62241430    -0.22400
C693        C  0.87424688  0.24617409  0.61346565    -0.22600
C694        C  0.88110047  0.24453541  0.60029717     0.00400
H695        H  0.88186080  0.25622789  0.63356719     0.14200
H696        H  0.86339143  0.24280325  0.61621543     0.14200
N697        N  0.10496364  0.25182719  0.39926076    -0.02100
C698        C  0.11771276  0.24459353  0.39939208     0.00500
C699        C  0.12473054  0.24621498  0.38631441    -0.22400
C700        C  0.11609480  0.25488965  0.37787340    -0.22600
C701        C  0.10401338  0.25816051  0.38602916     0.00400
H702        H  0.13508482  0.24171285  0.38330512     0.14200
H703        H  0.11827526  0.25822290  0.36687365     0.14200
N704        N  0.10244012  0.24158266  0.60204663    -0.02100
C705        C  0.11583701  0.23569203  0.60136108     0.00500
C706        C  0.12299231  0.23784795  0.61432140    -0.22400
C707        C  0.11359016  0.24515880  0.62327868    -0.22600
C708        C  0.10108570  0.24745283  0.61541889     0.00400
H709        H  0.13385976  0.23447126  0.61698299     0.14200
H710        H  0.11577917  0.24872865  0.63420481     0.14200
N711        N  0.97784704  0.25338574  0.49973041    -0.35200
N712        N  0.00052296  0.25362183  0.47799649    -0.55800
N713        N  0.02192575  0.25078014  0.50051468    -0.35200
N714        N  0.99920322  0.24912059  0.52223602    -0.55800
C715        C  0.96999373  0.25136442  0.48755726     0.28400
C716        C  0.96931325  0.24976365  0.51102823     0.28400
C717        C  0.03017940  0.24855419  0.48866646     0.28400
C718        C  0.02944943  0.24583075  0.51201936     0.28400
C719        C  0.98913212  0.25701935  0.46955941     0.37000
C720        C  0.01246101  0.25622562  0.47003018     0.37000
C721        C  0.98755791  0.25177442  0.53062064     0.37000
C722        C  0.01086456  0.24993400  0.53098393     0.37000
C723        C  0.95628262  0.24649666  0.49116717    -0.20500
C724        C  0.95585609  0.24547586  0.50598801    -0.20500
C725        C  0.04312565  0.24219271  0.49270260    -0.20500
C726        C  0.04268616  0.24051876  0.50745369    -0.20500
C727        C  0.99382479  0.26176346  0.45614377    -0.21600
C728        C  0.00863989  0.26134270  0.45647084    -0.21600
C729        C  0.99184307  0.25419169  0.54478417    -0.21600
C730        C  0.00662000  0.25292744  0.54502937    -0.21600
C731        C  0.97458864  0.25462113  0.47335829    -0.16900
C732        C  0.97308330  0.25106299  0.52578740    -0.16900
C733        C  0.02517805  0.24708469  0.52661108    -0.16900
C734        C  0.02664595  0.25278116  0.47441500    -0.16900
H735        H  0.94744579  0.24406797  0.48389041     0.16000
H736        H  0.94664508  0.24205419  0.51233564     0.16000
H737        H  0.05203461  0.23918288  0.48576174     0.16000
H738        H  0.05123058  0.23605488  0.51407135     0.16000
H739        H  0.98725512  0.26495423  0.44700416     0.14300
H740        H  0.01576024  0.26414653  0.44762544     0.14300
H741        H  0.98504356  0.25646956  0.55401471     0.14300
H742        H  0.01344186  0.25400102  0.55447577     0.14300
H743        H  0.98781219  0.25853512  0.50040311     0.27500
H744        H  0.01253410  0.25689971  0.50095130     0.27500
O745        O  0.01743574  0.32409281  0.34188011    -0.73000
O746        O  0.98787919  0.34242887  0.31901317    -0.73100
O747        O  0.98797462  0.32343587  0.34137953    -0.73100
O748        O  0.01724719  0.34312508  0.31957225    -0.73200
O749        O  0.01794291  0.32456683  0.30416922    -0.73100
O750        O  0.98875203  0.30503908  0.32578016    -0.73100
O751        O  0.98867338  0.32404301  0.30347587    -0.73100
O752        O  0.01780250  0.30571224  0.32629013    -0.73100
Ni753      Ni  0.00259946  0.33394947  0.33102862     1.25400
Ni754      Ni  0.00329146  0.31422935  0.31436796     1.25400
C755        C  0.02248222  0.31181472  0.33780316     0.89100
C756        C  0.98334908  0.33620509  0.30746406     0.89100
C757        C  0.98361076  0.31094504  0.33717765     0.89100
C758        C  0.02264179  0.33687874  0.30845764     0.89300
O759        O  0.81940430  0.20090815  0.48162029    -0.73000
O760        O  0.79879928  0.18175536  0.51198875    -0.73100
O761        O  0.82002634  0.20174517  0.51080530    -0.73100
O762        O  0.79796181  0.18064252  0.48274110    -0.73200
O763        O  0.81443729  0.16311598  0.48279369    -0.73100
O764        O  0.83638029  0.18409849  0.51109570    -0.73100
O765        O  0.81504295  0.16397429  0.51205364    -0.73100
O766        O  0.83584622  0.18331104  0.48168273    -0.73100
Ni767      Ni  0.80846679  0.19186971  0.49673524     1.25400
Ni768      Ni  0.82603051  0.17300577  0.49688476     1.25400
C769        C  0.83114518  0.19541764  0.47679036     0.89100
C770        C  0.80354851  0.16979409  0.51712339     0.89100
C771        C  0.83174524  0.19631622  0.51576367     0.89100
C772        C  0.80243902  0.16830394  0.47824038     0.89300
O773        O  0.19930422  0.17281359  0.48419995    -0.73000
O774        O  0.17681368  0.19246305  0.51275402    -0.73100
O775        O  0.19788125  0.17238944  0.51342943    -0.73100
O776        O  0.17815844  0.19301553  0.48369846    -0.73200
O777        O  0.16130471  0.17579692  0.48300683    -0.73100
O778        O  0.18188468  0.15435087  0.51196068    -0.73100
O779        O  0.16065802  0.17453315  0.51229354    -0.73100
O780        O  0.18250719  0.15557821  0.48265123    -0.73100
Ni781      Ni  0.18864236  0.18325918  0.49853887     1.25400
Ni782      Ni  0.17099012  0.16442104  0.49742142     1.25400
C783        C  0.19457395  0.16103537  0.47858923     0.89100
C784        C  0.16508050  0.18670001  0.51730947     0.89100
C785        C  0.19312807  0.16008298  0.51768415     0.89100
C786        C  0.16631912  0.18797585  0.47859996     0.89300
O787        O  0.82909485  0.50898981  0.18991049    -0.73000
O788        O  0.80983168  0.47848436  0.16903379    -0.73100
O789        O  0.83039245  0.47972017  0.18982000    -0.73100
O790        O  0.80814356  0.50773174  0.16935684    -0.73200
O791        O  0.82492124  0.50879400  0.15216135    -0.73100
O792        O  0.84748507  0.48059654  0.17292913    -0.73100
O793        O  0.82698942  0.47946168  0.15217347    -0.73100
O794        O  0.84585368  0.50988025  0.17269745    -0.73100
Ni795      Ni  0.81876295  0.49371453  0.18013222     1.25400
Ni796      Ni  0.83690372  0.49474693  0.16187705     1.25400
C797        C  0.84079553  0.51438988  0.18474075     0.89100
C798        C  0.81541392  0.47383605  0.15721476     0.89100
C799        C  0.84251741  0.47539420  0.18480165     0.89100
C800        C  0.81274603  0.51290414  0.15738307     0.89300
O801        O  0.19340137  0.51256588  0.16979406    -0.73000
O802        O  0.17545392  0.48138794  0.19038897    -0.73100
O803        O  0.19523593  0.48336710  0.16922771    -0.73100
O804        O  0.17343264  0.51080790  0.19129746    -0.73200
O805        O  0.15595176  0.51032564  0.17476684    -0.73100
O806        O  0.17762954  0.48246326  0.15285070    -0.73100
O807        O  0.15766716  0.48091119  0.17413186    -0.73100
O808        O  0.17583609  0.51188546  0.15331317    -0.73100
Ni809      Ni  0.18497408  0.49710238  0.18077808     1.25400
Ni810      Ni  0.16613489  0.49638388  0.16318508     1.25400
C811        C  0.18769161  0.51725006  0.15806606     0.89100
C812        C  0.16376459  0.47581027  0.18547066     0.89100
C813        C  0.18995617  0.47817421  0.15751975     0.89100
C814        C  0.16116261  0.51525239  0.18664430     0.89300
O815        O  0.68098008  0.33439154  0.98361582    -0.73000
O816        O  0.66006688  0.31594395  0.01429784    -0.73100
O817        O  0.68257683  0.33478550  0.01281366    -0.73100
O818        O  0.65860778  0.31570954  0.98496450    -0.73200
O819        O  0.67385495  0.29702380  0.98458525    -0.73100
O820        O  0.69781018  0.31611120  0.01236302    -0.73100
O821        O  0.67540768  0.29741762  0.01371923    -0.73100
O822        O  0.69633710  0.31586602  0.98308127    -0.73100
Ni823      Ni  0.66999596  0.32585699  0.99896832     1.25400
Ni824      Ni  0.68640146  0.30595014  0.99840915     1.25400
C825        C  0.69212368  0.32817807  0.97825757     0.89100
C826        C  0.66428100  0.30362213  0.01910035     0.89100
C827        C  0.69415689  0.32858350  0.01715775     0.89100
C828        C  0.66235278  0.30327794  0.98014039     0.89300
O829        O  0.83738648  0.50937944  0.81704368    -0.73000
O830        O  0.81863282  0.47834763  0.83739557    -0.73100
O831        O  0.83934330  0.48003651  0.81696035    -0.73100
O832        O  0.81690400  0.50758197  0.83768889    -0.73200
O833        O  0.79999881  0.50700051  0.82057573    -0.73100
O834        O  0.82238978  0.47858050  0.79995986    -0.73100
O835        O  0.80151185  0.47762510  0.82049612    -0.73100
O836        O  0.82062927  0.50802773  0.79981739    -0.73100
Ni837      Ni  0.82866345  0.49387104  0.82785453     1.25400
Ni838      Ni  0.81052924  0.49277530  0.80958394     1.25400
C839        C  0.83202827  0.51388833  0.80506930     0.89100
C840        C  0.80693563  0.47287573  0.83231362     0.89100
C841        C  0.83455869  0.47449288  0.80522637     0.89100
C842        C  0.80485001  0.51200192  0.83258522     0.89300
O843        O  0.01574918  0.29955640  0.67272175    -0.73000
O844        O  0.98794772  0.31981864  0.69554871    -0.73100
O845        O  0.98657540  0.29961777  0.67423604    -0.73100
O846        O  0.01696220  0.32002755  0.69396143    -0.73200
O847        O  0.01601090  0.33753715  0.67744617    -0.73100
O848        O  0.98587761  0.31708769  0.65765479    -0.73100
O849        O  0.98686446  0.33728198  0.67898935    -0.73100
O850        O  0.01532425  0.31711772  0.65619724    -0.73100
Ni851      Ni  0.00186474  0.30912929  0.68467341     1.25400
Ni852      Ni  0.00099900  0.32785729  0.66694746     1.25400
C853        C  0.02011610  0.30488699  0.66071545     0.89100
C854        C  0.98290229  0.33194856  0.69118372     0.89100
C855        C  0.98112979  0.30505936  0.66270284     0.89100
C856        C  0.02124039  0.33235175  0.68916775     0.89300
O857        O  0.19939316  0.48247761  0.82150701    -0.73000
O858        O  0.17652726  0.51140294  0.80299915    -0.73100
O859        O  0.19889284  0.51175936  0.82210006    -0.73100
O860        O  0.17719242  0.48216480  0.80274067    -0.73200
O861        O  0.16185418  0.48122642  0.82124970    -0.73100
O862        O  0.18304839  0.51152487  0.84021914    -0.73100
O863        O  0.16072724  0.51075227  0.82115092    -0.73100
O864        O  0.18421857  0.48218658  0.84022374    -0.73100
Ni865      Ni  0.18854203  0.49700887  0.81170490     1.25400
Ni866      Ni  0.17188481  0.49641122  0.83137126     1.25400
C867        C  0.19560004  0.47753226  0.83385258     0.89100
C868        C  0.16478217  0.51574924  0.80885575     0.89100
C869        C  0.19458593  0.51650874  0.83438565     0.89100
C870        C  0.16606689  0.47663707  0.80886458     0.89300
O871        O  0.34339149  0.31616456  0.98371759    -0.73000
O872        O  0.32229721  0.33777031  0.01219051    -0.73100
O873        O  0.34170474  0.31586405  0.01292711    -0.73100
O874        O  0.32423438  0.33817848  0.98283491    -0.73200
O875        O  0.30616140  0.32225768  0.98153352    -0.73100
O876        O  0.32352565  0.30003726  0.01178371    -0.73100
O877        O  0.30430551  0.32181522  0.01069008    -0.73100
O878        O  0.32531572  0.30027153  0.98259724    -0.73100
Ni879      Ni  0.33354833  0.32758756  0.99797212     1.25400
Ni880      Ni  0.31419740  0.31053957  0.99659652     1.25400
C881        C  0.33774928  0.30463752  0.97840162     0.89100
C882        C  0.30984079  0.33321245  0.01627132     0.89100
C883        C  0.33549036  0.30428590  0.01732694     0.89100
C884        C  0.31239354  0.33384320  0.97711939     0.89300
O885        O  0.51354858  0.19761365  0.81631060    -0.73000
O886        O  0.48406951  0.17626359  0.79664884    -0.73100
O887        O  0.48458744  0.19610280  0.81830346    -0.73100
O888        O  0.51329601  0.17773568  0.79473685    -0.73200
O889        O  0.51507672  0.15989851  0.81088732    -0.73100
O890        O  0.48635123  0.17813857  0.83431341    -0.73100
O891        O  0.48607703  0.15831553  0.81264036    -0.73100
O892        O  0.51556109  0.17980472  0.83245777    -0.73100
Ni893      Ni  0.49880482  0.18754092  0.80590114     1.25400
Ni894      Ni  0.50084319  0.16841899  0.82316225     1.25400
C895        C  0.51930905  0.19231251  0.82771876     0.89100
C896        C  0.48024909  0.16376293  0.80131902     0.89100
C897        C  0.48080284  0.19016870  0.83024222     0.89100
C898        C  0.51886716  0.16574483  0.79892997     0.89300
O899        O  0.51154436  0.17349866  0.15094237    -0.73000
O900        O  0.48334201  0.15009775  0.17053704    -0.73100
O901        O  0.48229760  0.17122339  0.15033262    -0.73100
O902        O  0.51270097  0.15236144  0.17109955    -0.73200
O903        O  0.51053826  0.16850029  0.18886458    -0.73100
O904        O  0.48144968  0.18845047  0.16721645    -0.73100
O905        O  0.48111325  0.16730741  0.18730074    -0.73100
O906        O  0.51054181  0.18973927  0.16869534    -0.73100
Ni907      Ni  0.49753583  0.16119166  0.16011082     1.25400
Ni908      Ni  0.49586967  0.17906271  0.17866390     1.25400
C909        C  0.51582998  0.18540681  0.15665633     0.89100
C910        C  0.47724043  0.15511844  0.18191273     0.89100
C911        C  0.47691804  0.18296459  0.15533986     0.89100
C912        C  0.51669719  0.15734816  0.18339554     0.89300
O913        O  0.33033949  0.01171880  0.69078771    -0.73000
O914        O  0.30635745  0.98404947  0.67180496    -0.73100
O915        O  0.32822680  0.98245774  0.69105656    -0.73100
O916        O  0.30865275  0.01323006  0.67140711    -0.73200
O917        O  0.32407766  0.01136934  0.65304108    -0.73100
O918        O  0.34449570  0.98154967  0.67337436    -0.73100
O919        O  0.32254930  0.98193119  0.65409432    -0.73100
O920        O  0.34592064  0.01109893  0.67243751    -0.73100
Ni921      Ni  0.31785307  0.99790037  0.68190146     1.25400
Ni922      Ni  0.33485330  0.99642869  0.66259014     1.25400
C923        C  0.34183001  0.01631355  0.68461532     0.89100
C924        C  0.31052791  0.97828752  0.65995192     0.89100
C925        C  0.33954861  0.97682348  0.68542909     0.89100
C926        C  0.31315073  0.01743540  0.65899225     0.89300
O927        O  0.51509227  0.82138391  0.79972390    -0.73000
O928        O  0.48620241  0.80068512  0.82137359    -0.73100
O929        O  0.48581690  0.82064364  0.79988664    -0.73100
O930        O  0.51558967  0.80133816  0.82124911    -0.73200
O931        O  0.51527551  0.81894069  0.83767564    -0.73100
O932        O  0.48553687  0.83828432  0.81630018    -0.73100
O933        O  0.48589079  0.81845398  0.83765259    -0.73100
O934        O  0.51478436  0.83891913  0.81622220    -0.73100
Ni935      Ni  0.50070652  0.81036619  0.80998404     1.25400
Ni936      Ni  0.50038925  0.82925388  0.82754622     1.25400
C937        C  0.51966933  0.83364630  0.80439080     0.89100
C938        C  0.48105343  0.80633273  0.83294219     0.89100
C939        C  0.48067373  0.83261065  0.80463042     0.89100
C940        C  0.52040059  0.80693939  0.83298431     0.89300
O941        O  0.32276321  0.69681042  0.98290036    -0.73000
O942        O  0.30292452  0.67486760  0.01179364    -0.73100
O943        O  0.32285642  0.69641765  0.01216929    -0.73100
O944        O  0.30297753  0.67540996  0.98266122    -0.73200
O945        O  0.32063754  0.65908283  0.98233854    -0.73100
O946        O  0.34052378  0.68007736  0.01214144    -0.73100
O947        O  0.32061453  0.65851612  0.01177591    -0.73100
O948        O  0.34063588  0.68066864  0.98277580    -0.73100
Ni949      Ni  0.31228633  0.68645701  0.99742329     1.25400
Ni950      Ni  0.33124561  0.66898714  0.99725257     1.25400
C951        C  0.33484485  0.69230013  0.97791445     0.89100
C952        C  0.30838992  0.66302538  0.01645987     0.89100
C953        C  0.33494449  0.69177795  0.01704473     0.89100
C954        C  0.30853697  0.66382152  0.97752012     0.89300
O955        O  0.51601548  0.84302846  0.17175742    -0.73000
O956        O  0.48631963  0.82272474  0.15088994    -0.73100
O957        O  0.48670787  0.84473725  0.17023301    -0.73100
O958        O  0.51556831  0.82112540  0.15227212    -0.73200
O959        O  0.51355725  0.80487993  0.16997568    -0.73100
O960        O  0.48514165  0.82896337  0.18836472    -0.73100
O961        O  0.48444270  0.80695677  0.16899625    -0.73100
O962        O  0.51440455  0.82685285  0.18951811    -0.73100
Ni963      Ni  0.50122158  0.83347571  0.16065916     1.25400
Ni964      Ni  0.49932945  0.81636782  0.17986583     1.25400
C965        C  0.52022834  0.83820099  0.18406441     0.89100
C966        C  0.48046337  0.81145875  0.15652561     0.89100
C967        C  0.48103330  0.84071240  0.18220451     0.89100
C968        C  0.51929201  0.80910193  0.15807906     0.89300
O969        O  0.30057479  0.00900019  0.32348381    -0.73000
O970        O  0.31788929  0.98003734  0.29936362    -0.73100
O971        O  0.29970509  0.97977645  0.32228807    -0.73100
O972        O  0.31874401  0.00938081  0.30043489    -0.73200
O973        O  0.33781827  0.00804901  0.31509667    -0.73100
O974        O  0.31843313  0.97888510  0.33737107    -0.73100
O975        O  0.33671978  0.97896907  0.31437105    -0.73100
O976        O  0.31969900  0.00824644  0.33812738    -0.73100
Ni977      Ni  0.30854979  0.99459390  0.31086486     1.25400
Ni978      Ni  0.32880885  0.99348648  0.32680188     1.25400
C979        C  0.30735138  0.01346528  0.33472508     0.89100
C980        C  0.33025434  0.97485910  0.30283604     0.89100
C981        C  0.30588363  0.97445222  0.33347612     0.89100
C982        C  0.33150154  0.01344096  0.30401256     0.89300
O983        O  0.17442172  0.84071623  0.48603929    -0.73000
O984        O  0.15151982  0.82216341  0.51523388    -0.73100
O985        O  0.17279444  0.84231610  0.51537389    -0.73100
O986        O  0.15322615  0.82035816  0.48578052    -0.73200
O987        O  0.16978470  0.80305338  0.48807156    -0.73100
O988        O  0.18943489  0.82500371  0.51706214    -0.73100
O989        O  0.16814852  0.80491134  0.51729533    -0.73100
O990        O  0.19097999  0.82336021  0.48793262    -0.73100
Ni991      Ni  0.16238632  0.83200858  0.50052314     1.25400
Ni992      Ni  0.18014119  0.81346431  0.50264275     1.25400
C993        C  0.18649284  0.83515185  0.48217068     0.89100
C994        C  0.15616990  0.81059336  0.52130161     0.89100
C995        C  0.18435169  0.83722568  0.52110787     0.89100
C996        C  0.15837309  0.80801964  0.48202327     0.89300
O997        O  0.98513093  0.67307513  0.34241092    -0.73000
O998        O  0.01419321  0.65379369  0.31989231    -0.73100
O999        O  0.01458900  0.67263032  0.34228705    -0.73100
O1000       O  0.98494958  0.65407467  0.31985741    -0.73200
O1001       O  0.98498875  0.67269022  0.30451685    -0.73100
O1002       O  0.01467977  0.69113460  0.32680000    -0.73100
O1003       O  0.01426995  0.67217148  0.30430520    -0.73100
O1004       O  0.98548970  0.69153829  0.32694154    -0.73100
Ni1005     Ni  0.99967846  0.66274736  0.33168471     1.25400
Ni1006     Ni  0.99986293  0.68253095  0.31510015     1.25400
C1007       C  0.98054291  0.68555820  0.33841751     0.89100
C1008       C  0.01904462  0.65979110  0.30837273     0.89100
C1009       C  0.01958828  0.68490453  0.33815788     0.89100
C1010       C  0.98017142  0.66028118  0.30841950     0.89300
O1011       O  0.84212207  0.81974010  0.48384880    -0.73000
O1012       O  0.82116904  0.83999197  0.51341048    -0.73100
O1013       O  0.84251905  0.81998651  0.51324819    -0.73100
O1014       O  0.82083043  0.83991737  0.48401080    -0.73200
O1015       O  0.80435479  0.82233477  0.48413790    -0.73100
O1016       O  0.82568025  0.80272255  0.51386096    -0.73100
O1017       O  0.80446466  0.82261477  0.51338878    -0.73100
O1018       O  0.82561738  0.80219498  0.48448339    -0.73100
Ni1019     Ni  0.83225308  0.83054398  0.49859788     1.25400
Ni1020     Ni  0.81447076  0.81183931  0.49894486     1.25400
C1021       C  0.83729795  0.80753743  0.47930486     0.89100
C1022       C  0.80939808  0.83456165  0.51836377     0.89100
C1023       C  0.83748017  0.80823288  0.51863447     0.89100
C1024       C  0.80901531  0.83446024  0.47922626     0.89300
O1025       O  0.69340611  0.98422567  0.32414997    -0.73000
O1026       O  0.67436236  0.01410991  0.30269596    -0.73100
O1027       O  0.69280044  0.01342735  0.32532418    -0.73100
O1028       O  0.67490552  0.98467871  0.30141779    -0.73200
O1029       O  0.65648223  0.98336412  0.31682982    -0.73100
O1030       O  0.67402477  0.01278199  0.34035854    -0.73100
O1031       O  0.65550942  0.01279946  0.31760125    -0.73100
O1032       O  0.67494957  0.98335448  0.33955118    -0.73100
Ni1033     Ni  0.68450342  0.99913926  0.31284689     1.25400
Ni1034     Ni  0.66456229  0.99803917  0.32911968     1.25400
C1035       C  0.68741444  0.97892046  0.33546391     0.89100
C1036       C  0.66182888  0.01845807  0.30663398     0.89100
C1037       C  0.68638707  0.01790878  0.33673723     0.89100
C1038       C  0.66284594  0.97906173  0.30530346     0.89300
O1039       O  0.98295763  0.69495403  0.68055265    -0.73000
O1040       O  0.01169119  0.67367174  0.70163116    -0.73100
O1041       O  0.01211895  0.69565922  0.68226594    -0.73100
O1042       O  0.98250470  0.67298990  0.69999483    -0.73200
O1043       O  0.98396003  0.65680570  0.68221725    -0.73100
O1044       O  0.01304763  0.68003845  0.66391295    -0.73100
O1045       O  0.01336785  0.65806390  0.68333587    -0.73100
O1046       O  0.98395317  0.67879285  0.66273499    -0.73100
Ni1047     Ni  0.99725827  0.68486585  0.69175739     1.25400
Ni1048     Ni  0.99862628  0.66781946  0.67243531     1.25400
C1049       C  0.97877262  0.69047195  0.66810179     0.89100
C1050       C  0.01745955  0.66248554  0.69582849     0.89100
C1051       C  0.01734476  0.69169676  0.67008636     0.89100
C1052       C  0.97830330  0.66117718  0.69408798     0.89300
O1053       O  0.67818974  0.98466760  0.65088461    -0.73000
O1054       O  0.65449176  0.01275808  0.67014446    -0.73100
O1055       O  0.67564265  0.01400699  0.64998936    -0.73100
O1056       O  0.65690842  0.98348177  0.67098334    -0.73200
O1057       O  0.67332394  0.98541587  0.68846194    -0.73100
O1058       O  0.69227428  0.01579374  0.66731050    -0.73100
O1059       O  0.67109002  0.01462998  0.68746206    -0.73100
O1060       O  0.69458003  0.98657364  0.66839951    -0.73100
Ni1061     Ni  0.66573328  0.99865209  0.65986515     1.25400
Ni1062     Ni  0.68339692  0.00067293  0.67851758     1.25400
C1063       C  0.69026420  0.98088687  0.65653373     0.89100
C1064       C  0.65893711  0.01837097  0.68202343     0.89100
C1065       C  0.68697890  0.02003182  0.65521671     0.89100
C1066       C  0.66197389  0.97939977  0.68322252     0.89300
O1067       O  0.65751831  0.67392792  0.98214407    -0.73000
O1068       O  0.67814989  0.65161866  0.01043101    -0.73100
O1069       O  0.65790591  0.67285446  0.01150563    -0.73100
O1070       O  0.67791627  0.65268040  0.98115991    -0.73200
O1071       O  0.69536906  0.66928275  0.98189477    -0.73100
O1072       O  0.67518348  0.68969013  0.01156398    -0.73100
O1073       O  0.69545993  0.66839473  0.01096392    -0.73100
O1074       O  0.67511753  0.69040055  0.98235072    -0.73100
Ni1075     Ni  0.66723323  0.66217599  0.99628646     1.25400
Ni1076     Ni  0.68587162  0.68003428  0.99671845     1.25400
C1077       C  0.66293716  0.68585395  0.97754135     0.89100
C1078       C  0.69026936  0.65626643  0.01528988     0.89100
C1079       C  0.66322198  0.68470547  0.01643448     0.89100
C1080       C  0.69013208  0.65754024  0.97672599     0.89300
C1081       C  0.04134915  0.27357197  0.64502150    -0.26800
C1082       C  0.05303964  0.28065684  0.63839230     0.06800
C1083       C  0.05321033  0.29593117  0.63819132     0.26400
C1084       C  0.04214766  0.30383096  0.64492081    -0.11300
C1085       C  0.03088466  0.29666699  0.65217032    -0.25300
C1086       C  0.03046907  0.28143705  0.65193530     0.37200
C1087       C  0.06518944  0.27201144  0.63228011     0.06800
F1088       F  0.06443154  0.30322818  0.63216684    -0.19000
H1089       H  0.04272758  0.31554586  0.64502029     0.16600
F1090       F  0.01949788  0.27412216  0.65839168    -0.22800
H1091       H  0.04072737  0.26185943  0.64501033     0.18400
C1092       C  0.07147714  0.26069798  0.64033538     0.26400
C1093       C  0.08297107  0.25270123  0.63466089    -0.11300
C1094       C  0.08846192  0.25574139  0.62086219    -0.25300
C1095       C  0.08234579  0.26715336  0.61285084     0.37300
C1096       C  0.07074859  0.27509820  0.61847387    -0.26900
F1097       F  0.06683061  0.25765413  0.65391524    -0.19100
H1098       H  0.08766335  0.24412056  0.64111129     0.16600
F1099       F  0.08796405  0.27108562  0.59989103    -0.22800
H1100       H  0.06614775  0.28373498  0.61204244     0.18400
C1101       C  0.12113204  0.21134526  0.56860914    -0.26800
C1102       C  0.13517077  0.21517877  0.56424007     0.06800
C1103       C  0.14273782  0.22571805  0.57225264     0.26400
C1104       C  0.13632696  0.23226780  0.58425548    -0.11300
C1105       C  0.12230287  0.22845639  0.58858177    -0.25300
C1106       C  0.11482717  0.21772481  0.58077876     0.37200
C1107       C  0.14204672  0.20789329  0.55165930     0.06800
F1108       F  0.15650096  0.22940660  0.56876338    -0.19000
H1109       H  0.14234258  0.24039585  0.59019252     0.16600
F1110       F  0.10166880  0.21298998  0.58517428    -0.22800
H1111       H  0.11503622  0.20331108  0.56263783     0.18400
C1112       C  0.14144925  0.19272833  0.55006700     0.26400
C1113       C  0.14860078  0.18595864  0.53860996    -0.11300
C1114       C  0.15668651  0.19410399  0.52867956    -0.25300
C1115       C  0.15703886  0.20926997  0.53004862     0.37300
C1116       C  0.14966962  0.21606618  0.54134518    -0.26900
F1117       F  0.13451520  0.18435678  0.55993314    -0.19100
H1118       H  0.14824210  0.17426089  0.53781012     0.16600
F1119       F  0.16438652  0.21755034  0.52039616    -0.22800
H1120       H  0.14999369  0.22776551  0.54207671     0.18400
C1121       C  0.05102545  0.23079240  0.55383161    -0.26800
C1122       C  0.05852437  0.24315999  0.55854685     0.06800
C1123       C  0.05485683  0.25677858  0.55283034     0.26400
C1124       C  0.04390126  0.25796091  0.54253761    -0.11300
C1125       C  0.03645136  0.24561948  0.53784513    -0.25300
C1126       C  0.04005034  0.23199688  0.54351192     0.37200
C1127       C  0.07007803  0.24192749  0.56949598     0.06800
F1128       F  0.06167785  0.26896183  0.55742858    -0.19000
H1129       H  0.04119216  0.26850933  0.53820074     0.16600
F1130       F  0.03308178  0.21990836  0.53889624    -0.22800
H1131       H  0.05379038  0.22020724  0.55803800     0.18400
C1132       C  0.06733557  0.23547573  0.58298503     0.26400
C1133       C  0.07803814  0.23536707  0.59362835    -0.11300
C1134       C  0.09164082  0.24147460  0.59089359    -0.25300
C1135       C  0.09452288  0.24756963  0.57729671     0.37300
C1136       C  0.08379132  0.24781303  0.56669837    -0.26900
F1137       F  0.05417501  0.22974302  0.58602814    -0.19100
H1138       H  0.07575848  0.23055984  0.60405886     0.16600
F1139       F  0.10754171  0.25371696  0.57448800    -0.22800
H1140       H  0.08611946  0.25273787  0.55632847     0.18400
C1141       C  0.04714916  0.28255908  0.35244090    -0.26800
C1142       C  0.05640175  0.29041655  0.36154209     0.06800
C1143       C  0.05430031  0.30544690  0.36303483     0.26400
C1144       C  0.04307199  0.31236888  0.35555131    -0.11300
C1145       C  0.03390826  0.30446589  0.34631641    -0.25300
C1146       C  0.03604671  0.28943170  0.34492435     0.37200
C1147       C  0.06842487  0.28276829  0.36892728     0.06800
F1148       F  0.06299696  0.31339938  0.37180426    -0.19000
H1149       H  0.04170971  0.32394889  0.35677916     0.16600
F1150       F  0.02734639  0.28126655  0.33635958    -0.22800
H1151       H  0.04867804  0.27103175  0.35093432     0.18400
C1152       C  0.06592871  0.26970762  0.37639830     0.26400
C1153       C  0.07748514  0.26177702  0.38203284    -0.11300
C1154       C  0.09170959  0.26680466  0.38051244    -0.25300
C1155       C  0.09420085  0.27998214  0.37329549     0.37300
C1156       C  0.08265240  0.28788140  0.36758667    -0.26900
F1157       F  0.05229795  0.26458366  0.37819993    -0.19100
H1158       H  0.07532217  0.25157450  0.38738526     0.16600
F1159       F  0.10782058  0.28523897  0.37179845    -0.22800
H1160       H  0.08487122  0.29780041  0.36174287     0.18400
C1161       C  0.13890644  0.19905200  0.45010083    -0.26800
C1162       C  0.14397340  0.21283805  0.44622344     0.06800
C1163       C  0.15616334  0.21853948  0.45325292     0.26400
C1164       C  0.16330605  0.21040613  0.46378090    -0.11300
C1165       C  0.15839948  0.19647081  0.46756029    -0.25300
C1166       C  0.14598537  0.19092276  0.46068033     0.37200
C1167       C  0.13684985  0.22091476  0.43441932     0.06800
F1168       F  0.16146222  0.23175633  0.44958948    -0.19000
H1169       H  0.17277563  0.21502302  0.46889976     0.16600
F1170       F  0.14074643  0.17759353  0.46397940    -0.22800
H1171       H  0.12945495  0.19454540  0.44484425     0.18400
C1172       C  0.13534371  0.21458911  0.42068799     0.26400
C1173       C  0.12893330  0.22232868  0.40943326    -0.11300
C1174       C  0.12378642  0.23641715  0.41170856    -0.25300
C1175       C  0.12526175  0.24277125  0.42544337     0.37300
C1176       C  0.13176432  0.23504657  0.43670857    -0.26900
F1177       F  0.14049589  0.20109116  0.41805378    -0.19100
H1178       H  0.12802032  0.21733515  0.39887528     0.16600
F1179       F  0.12092725  0.25659564  0.42782134    -0.22800
H1180       H  0.13288788  0.24010032  0.44721660     0.18400
C1181       C  0.07726734  0.26522769  0.42569024    -0.26800
C1182       C  0.07280537  0.25226843  0.43228329     0.06800
C1183       C  0.07944088  0.23920436  0.42815444     0.26400
C1184       C  0.08993886  0.23913094  0.41730317    -0.11300
C1185       C  0.09430349  0.25208317  0.41063955    -0.25300
C1186       C  0.08806828  0.26519182  0.41515687     0.37200
C1187       C  0.06104300  0.25243541  0.44317841     0.06800
F1188       F  0.07592719  0.22654238  0.43474245    -0.19000
H1189       H  0.09462772  0.22892136  0.41401690     0.16600
F1190       F  0.09248379  0.27798073  0.40944975    -0.22800
H1191       H  0.07228421  0.27541548  0.42860437     0.18400
C1192       C  0.06101197  0.26261324  0.45452137     0.26400
C1193       C  0.04970596  0.26279543  0.46452384    -0.11300
C1194       C  0.03831552  0.25282907  0.46342603    -0.25300
C1195       C  0.03833646  0.24262437  0.45218523     0.37300
C1196       C  0.04956441  0.24250229  0.44210987    -0.26900
F1197       F  0.07207368  0.27214043  0.45615394    -0.19100
H1198       H  0.04987546  0.27062766  0.47323997     0.16600
F1199       F  0.02755027  0.23271092  0.45106650    -0.22800
H1200       H  0.04922833  0.23469958  0.43337794     0.18400
C1201       C  0.91951108  0.28252219  0.63507348    -0.26800
C1202       C  0.93339099  0.27670502  0.63337297     0.06800
C1203       C  0.93511168  0.26408569  0.62501724     0.26400
C1204       C  0.92308135  0.25738098  0.61863240    -0.11300
C1205       C  0.90916836  0.26317873  0.62044138    -0.25300
C1206       C  0.90752628  0.27584952  0.62872900     0.37200
C1207       C  0.94589361  0.28380581  0.64055190     0.06800
F1208       F  0.94843145  0.25834389  0.62292521    -0.19000
H1209       H  0.92461300  0.24752476  0.61248934     0.16600
F1210       F  0.89430031  0.28187299  0.63062423    -0.22800
H1211       H  0.91792308  0.29217734  0.64152458     0.18400
C1212       C  0.94877565  0.29858814  0.63832717     0.26400
C1213       C  0.96030925  0.30531929  0.64544363    -0.11300
C1214       C  0.96908669  0.29754978  0.65512992    -0.25300
C1215       C  0.96610581  0.28275190  0.65744968     0.37300
C1216       C  0.95468879  0.27596549  0.65012529    -0.26900
F1217       F  0.94051410  0.30650072  0.62913803    -0.19100
H1218       H  0.96225221  0.31672061  0.64348890     0.16600
F1219       F  0.97426657  0.27477977  0.66667277    -0.22800
H1220       H  0.95253912  0.26460745  0.65212533     0.18400
C1221       C  0.86022617  0.21821415  0.57674636    -0.26800
C1222       C  0.86122522  0.22476000  0.56310209     0.06800
C1223       C  0.86864158  0.23798124  0.56171368     0.26400
C1224       C  0.87503354  0.24445733  0.57382026    -0.11300
C1225       C  0.87418665  0.23781031  0.58745883    -0.25300
C1226       C  0.86657276  0.22468147  0.58883874     0.37200
C1227       C  0.85429373  0.21779297  0.55046702     0.06800
F1228       F  0.86993532  0.24446062  0.54860759    -0.19000
H1229       H  0.88061612  0.25468877  0.57254226     0.16600
F1230       F  0.86555900  0.21790971  0.60182326    -0.22800
H1231       H  0.85443716  0.20809096  0.57803538     0.18400
C1232       C  0.85788704  0.20357033  0.54649663     0.26400
C1233       C  0.85079097  0.19682278  0.53496897    -0.11300
C1234       C  0.83982635  0.20404020  0.52730265    -0.25300
C1235       C  0.83636581  0.21838603  0.53123217     0.37300
C1236       C  0.84361763  0.22517379  0.54265113    -0.26900
F1237       F  0.86828907  0.19621568  0.55376738    -0.19100
H1238       H  0.85369564  0.18580090  0.53225103     0.16600
F1239       F  0.82591277  0.22586468  0.52416771    -0.22800
H1240       H  0.84065336  0.23611491  0.54563555     0.18400
C1241       C  0.91898029  0.23831062  0.57074556    -0.26800
C1242       C  0.92656090  0.25113479  0.56765964     0.06800
C1243       C  0.92303697  0.26382459  0.57531875     0.26400
C1244       C  0.91230836  0.26354883  0.58594128    -0.11300
C1245       C  0.90516255  0.25059401  0.58940810    -0.25300
C1246       C  0.90858212  0.23794558  0.58166496     0.37200
C1247       C  0.93843374  0.25104660  0.55686150     0.06800
F1248       F  0.93033589  0.27636128  0.57296176    -0.19000
H1249       H  0.90973073  0.27342190  0.59168634     0.16600
F1250       F  0.90217924  0.22513105  0.58491529    -0.22800
H1251       H  0.92128591  0.22845839  0.56484045     0.18400
C1252       C  0.94895911  0.24004017  0.55701347     0.26400
C1253       C  0.96017389  0.24009635  0.54691750    -0.11300
C1254       C  0.96123545  0.25119903  0.53663382    -0.25300
C1255       C  0.95079548  0.26222636  0.53647362     0.37300
C1256       C  0.93944818  0.26207292  0.54643223    -0.26900
F1257       F  0.94863128  0.22941597  0.56714794    -0.19100
H1258       H  0.96810816  0.23149296  0.54714345     0.16600
F1259       F  0.95162014  0.27314409  0.52667899    -0.22800
H1260       H  0.93139826  0.27055040  0.54594202     0.18400
C1261       C  0.93104751  0.28445664  0.37848603    -0.26800
C1262       C  0.93683507  0.28047061  0.36503356     0.06800
C1263       C  0.93040363  0.26899354  0.35733372     0.26400
C1264       C  0.91853667  0.26162047  0.36308463    -0.11300
C1265       C  0.91283939  0.26552812  0.37657122    -0.25300
C1266       C  0.91905525  0.27719251  0.38414600     0.37200
C1267       C  0.94934388  0.28844488  0.35890384     0.06800
F1268       F  0.93532578  0.26516527  0.34405465    -0.19000
H1269       H  0.91377527  0.25280627  0.35698786     0.16600
F1270       F  0.91327567  0.28190301  0.39676616    -0.22800
H1271       H  0.93578816  0.29326073  0.38460682     0.18400
C1272       C  0.94947353  0.30368598  0.35831274     0.26400
C1273       C  0.96095199  0.31099558  0.35170909    -0.11300
C1274       C  0.97233044  0.30324777  0.34538564    -0.25300
C1275       C  0.97243123  0.28805572  0.34634809     0.37300
C1276       C  0.96108957  0.28076382  0.35314645    -0.26900
F1277       F  0.93818980  0.31149237  0.36346766    -0.19100
H1278       H  0.96065053  0.32270058  0.35100552     0.16600
F1279       F  0.98353465  0.28025922  0.34078285    -0.22800
H1280       H  0.96140751  0.26905770  0.35378880     0.18400
C1281       C  0.87775217  0.22232806  0.42917462    -0.26800
C1282       C  0.86342118  0.22610940  0.43254291     0.06800
C1283       C  0.85673008  0.23719491  0.42453999     0.26400
C1284       C  0.86410329  0.24401498  0.41325147    -0.11300
C1285       C  0.87828986  0.24003553  0.40969107    -0.25300
C1286       C  0.88511086  0.22912704  0.41779833     0.37200
C1287       C  0.85535496  0.21819050  0.44403159     0.06800
F1288       F  0.84283648  0.24103403  0.42718869    -0.19000
H1289       H  0.85861431  0.25233222  0.40709327     0.16600
F1290       F  0.89856343  0.22450485  0.41430906    -0.22800
H1291       H  0.88320064  0.21392620  0.43524260     0.18400
C1292       C  0.85531933  0.20294109  0.44453786     0.26400
C1293       C  0.84756870  0.19560139  0.45529005    -0.11300
C1294       C  0.83943953  0.20327452  0.46554614    -0.25300
C1295       C  0.83940221  0.21851159  0.46500682     0.37300
C1296       C  0.84737277  0.22585071  0.45443587    -0.26900
F1297       F  0.86238211  0.19510517  0.43434975    -0.19100
H1298       H  0.84766337  0.18387352  0.45540368     0.16600
F1299       F  0.83197593  0.22634796  0.47493727    -0.22800
H1300       H  0.84738289  0.23757774  0.45444655     0.18400
C1301       C  0.91752072  0.25947073  0.43125049    -0.26800
C1302       C  0.93154997  0.25456957  0.42815034     0.06800
C1303       C  0.93449875  0.24891661  0.41433857     0.26400
C1304       C  0.92353686  0.24793290  0.40402491    -0.11300
C1305       C  0.90954863  0.25287420  0.40711827    -0.25300
C1306       C  0.90663900  0.25877866  0.42079342     0.37200
C1307       C  0.94287482  0.25489994  0.43949282     0.06800
F1308       F  0.94803761  0.24463480  0.41069736    -0.19000
H1309       H  0.92597734  0.24345310  0.39349204     0.16600
F1310       F  0.89341004  0.26424268  0.42388318    -0.22800
H1311       H  0.91494776  0.26376186  0.44183077     0.18400
C1312       C  0.94512638  0.26731867  0.44806234     0.26400
C1313       C  0.95540826  0.26716200  0.45913808    -0.11300
C1314       C  0.96368094  0.25473563  0.46167239    -0.25300
C1315       C  0.96166555  0.24243845  0.45301929     0.37300
C1316       C  0.95127334  0.24250088  0.44208950    -0.26900
F1317       F  0.93759818  0.27966670  0.44556221    -0.19100
H1318       H  0.95701606  0.27675306  0.46568824     0.16600
F1319       F  0.96964834  0.23033622  0.45529203    -0.22800
H1320       H  0.94961522  0.23274819  0.43580064     0.18400
C1321       C  0.06174810  0.62508267  0.26183074    -0.26800
C1322       C  0.06440180  0.63236289  0.27490989     0.06800
C1323       C  0.07863941  0.63323893  0.28011072     0.26400
C1324       C  0.08997486  0.62693525  0.27237336    -0.11300
C1325       C  0.08734616  0.61943356  0.25943115    -0.25300
C1326       C  0.07310563  0.61862387  0.25414222     0.37200
C1327       C  0.05238252  0.63902192  0.28317466     0.06800
F1328       F  0.08161872  0.64048862  0.29252737    -0.19000
H1329       H  0.10087624  0.62785506  0.27653755     0.16600
F1330       F  0.07022975  0.61205214  0.24134112    -0.22800
H1331       H  0.05085512  0.62437022  0.25760998     0.18400
C1332       C  0.04390697  0.65009242  0.27713910     0.26400
C1333       C  0.03308756  0.65676522  0.28536070    -0.11300
C1334       C  0.03035655  0.65238994  0.29968203    -0.25300
C1335       C  0.03869919  0.64107187  0.30558190     0.37300
C1336       C  0.04964411  0.63457715  0.29741912    -0.26900
F1337       F  0.04638548  0.65475259  0.26344705    -0.19100
H1338       H  0.02683911  0.66538926  0.28049496     0.16600
F1339       F  0.03656298  0.63647296  0.31935291    -0.22800
H1340       H  0.05604756  0.62603841  0.30224122     0.18400
C1341       C  0.12665972  0.56018788  0.23164167    -0.26800
C1342       C  0.13301526  0.56184095  0.21794861     0.06800
C1343       C  0.13317497  0.57564813  0.21154111     0.26400
C1344       C  0.12688653  0.58746282  0.21859497    -0.11300
C1345       C  0.12027647  0.58580971  0.23216748    -0.25300
C1346       C  0.12041568  0.57204670  0.23874962     0.37200
C1347       C  0.13957765  0.54925571  0.21037785     0.06800
F1348       F  0.13975765  0.57778741  0.19860498    -0.19000
H1349       H  0.12715752  0.59797329  0.21340331     0.16600
F1350       F  0.11501271  0.57011749  0.25223843    -0.22800
H1351       H  0.12654757  0.54968043  0.23684217     0.18400
C1352       C  0.15054654  0.54101792  0.21690558     0.26400
C1353       C  0.15728920  0.52981602  0.20924507    -0.11300
C1354       C  0.15314353  0.52646391  0.19497995    -0.25300
C1355       C  0.14177545  0.53441477  0.18866793     0.37300
C1356       C  0.13517698  0.54572199  0.19628094    -0.26900
F1357       F  0.15515873  0.54418101  0.23047491    -0.19100
H1358       H  0.16592633  0.52387902  0.21444759     0.16600
F1359       F  0.13729780  0.53162759  0.17497391    -0.22800
H1360       H  0.12665009  0.55184342  0.19110151     0.18400
C1361       C  0.07482189  0.57275983  0.26200458    -0.26800
C1362       C  0.07034689  0.56525427  0.24955473     0.06800
C1363       C  0.07621019  0.56921359  0.23607535     0.26400
C1364       C  0.08604508  0.58062668  0.23508234    -0.11300
C1365       C  0.09049267  0.58810522  0.24749200    -0.25300
C1366       C  0.08491065  0.58401207  0.26101732     0.37200
C1367       C  0.05933363  0.55358973  0.25051714     0.06800
F1368       F  0.07266468  0.56184954  0.22387749    -0.19000
H1369       H  0.09031987  0.58360437  0.22460230     0.16600
F1370       F  0.08949885  0.59064934  0.27327513    -0.22800
H1371       H  0.07042611  0.56998520  0.27249138     0.18400
C1372       C  0.06029537  0.54252954  0.26096831     0.26400
C1373       C  0.04986113  0.53155034  0.26145407    -0.11300
C1374       C  0.03839955  0.53138579  0.25151415    -0.25300
C1375       C  0.03748582  0.54236369  0.24105570     0.37300
C1376       C  0.04774369  0.55342857  0.24070508    -0.26900
F1377       F  0.07147772  0.54211583  0.27045542    -0.19100
H1378       H  0.05072408  0.52312147  0.26955166     0.16600
F1379       F  0.02663979  0.54236286  0.23117648    -0.22800
H1380       H  0.04660374  0.56193396  0.23272823     0.18400
C1381       C  0.05694684  0.34141390  0.28693159    -0.26800
C1382       C  0.05826439  0.35653925  0.28617576     0.06800
C1383       C  0.04764100  0.36523152  0.29273770     0.26400
C1384       C  0.03609232  0.35881137  0.30010116    -0.11300
C1385       C  0.03475358  0.34368093  0.30067936    -0.25300
C1386       C  0.04528274  0.33502213  0.29399052     0.37200
C1387       C  0.07056934  0.36295531  0.27817759     0.06800
F1388       F  0.04813180  0.37987862  0.29162607    -0.19000
H1389       H  0.02802460  0.36566166  0.30509051     0.16600
F1390       F  0.04454974  0.32035009  0.29461682    -0.22800
H1391       H  0.06505149  0.33449216  0.28210200     0.18400
C1392       C  0.07891724  0.37426242  0.28410725     0.26400
C1393       C  0.09058179  0.37995103  0.27636801    -0.11300
C1394       C  0.09432329  0.37413615  0.26290669    -0.25300
C1395       C  0.08624217  0.36271574  0.25708512     0.37300
C1396       C  0.07435503  0.35729672  0.26458857    -0.26900
F1397       F  0.07619805  0.37939667  0.29757842    -0.19100
H1398       H  0.09692269  0.38865916  0.28100940     0.16600
F1399       F  0.08972867  0.35699026  0.24403425    -0.22800
H1400       H  0.06808565  0.34863634  0.25977178     0.18400
C1401       C  0.14353854  0.42568794  0.23073725    -0.26800
C1402       C  0.13834505  0.42795798  0.21663997     0.06800
C1403       C  0.12711579  0.41908573  0.21137166     0.26400
C1404       C  0.12103541  0.40841957  0.22023563    -0.11300
C1405       C  0.12632421  0.40623214  0.23425413    -0.25300
C1406       C  0.13769274  0.41481587  0.23942319     0.37200
C1407       C  0.14475409  0.43965090  0.20770755     0.06800
F1408       F  0.12241756  0.42034119  0.19752725    -0.19000
H1409       H  0.11251218  0.40155690  0.21602681     0.16600
F1410       F  0.14303502  0.41273629  0.25293151    -0.22800
H1411       H  0.15212370  0.43239919  0.23505363     0.18400
C1412       C  0.13598580  0.44990968  0.20068675     0.26400
C1413       C  0.14224809  0.46149129  0.19321853    -0.11300
C1414       C  0.15730685  0.46322610  0.19289058    -0.25300
C1415       C  0.16608914  0.45283237  0.19967305     0.37300
C1416       C  0.15984089  0.44114292  0.20694788    -0.26900
F1417       F  0.12137716  0.44916958  0.20164092    -0.19100
H1418       H  0.13529778  0.46939070  0.18808216     0.16600
F1419       F  0.18070990  0.45383859  0.19909003    -0.22800
H1420       H  0.16680819  0.43328293  0.21212546     0.18400
C1421       C  0.08746569  0.42803992  0.25429014    -0.26800
C1422       C  0.07355572  0.42428583  0.24947012     0.06800
C1423       C  0.07109631  0.41020667  0.24419988     0.26400
C1424       C  0.08236942  0.40015305  0.24376935    -0.11300
C1425       C  0.09624202  0.40388871  0.24866621    -0.25300
C1426       C  0.09869997  0.41793391  0.25396489     0.37200
C1427       C  0.06171458  0.43509213  0.24997889     0.06800
F1428       F  0.05770816  0.40604775  0.23986256    -0.19000
H1429       H  0.08027330  0.38936880  0.23968701     0.16600
F1430       F  0.11181109  0.42171199  0.25931661    -0.22800
H1431       H  0.08962046  0.43883025  0.25835060     0.18400
C1432       C  0.05871924  0.44275824  0.26278502     0.26400
C1433       C  0.04779182  0.45318484  0.26304757    -0.11300
C1434       C  0.03964846  0.45606392  0.25061243    -0.25300
C1435       C  0.04246350  0.44834541  0.23785573     0.37300
C1436       C  0.05344357  0.43795630  0.23755176    -0.26900
F1437       F  0.06615755  0.43995318  0.27511463    -0.19100
H1438       H  0.04560088  0.45898775  0.27298078     0.16600
F1439       F  0.03468507  0.45098562  0.22569929    -0.22800
H1440       H  0.05563207  0.43227365  0.22755102     0.18400
C1441       C  0.94887400  0.65373310  0.28273311    -0.26800
C1442       C  0.94869021  0.63853335  0.28178663     0.06800
C1443       C  0.95903855  0.63059323  0.28963626     0.26400
C1444       C  0.96899595  0.63772826  0.29853539    -0.11300
C1445       C  0.96916084  0.65290700  0.29944172    -0.25300
C1446       C  0.95905498  0.66087486  0.29135203     0.37200
C1447       C  0.93767898  0.63118397  0.27260425     0.06800
F1448       F  0.95988473  0.61598132  0.28833426    -0.19000
H1449       H  0.97687665  0.63138022  0.30442023     0.16600
F1450       F  0.95878935  0.67555652  0.29201237    -0.22800
H1451       H  0.94099911  0.66011867  0.27688471     0.18400
C1452       C  0.92970589  0.61924738  0.27779503     0.26400
C1453       C  0.91900136  0.61285668  0.26921724    -0.11300
C1454       C  0.91578873  0.61843926  0.25550742    -0.25300
C1455       C  0.92364785  0.63036876  0.25030206     0.37300
C1456       C  0.93458018  0.63656635  0.25871968    -0.26900
F1457       F  0.93164873  0.61426168  0.29145545    -0.19100
H1458       H  0.91274412  0.60395556  0.27357150     0.16600
F1459       F  0.92073211  0.63603648  0.23707887    -0.22800
H1460       H  0.94055572  0.64569582  0.25442741     0.18400
C1461       C  0.87250850  0.57340869  0.20748034    -0.26800
C1462       C  0.87069934  0.56039724  0.21512062     0.06800
C1463       C  0.87547335  0.55958093  0.22952986     0.26400
C1464       C  0.88150668  0.57175244  0.23624115    -0.11300
C1465       C  0.88319057  0.58480329  0.22862528    -0.25300
C1466       C  0.87866272  0.58550351  0.21413794     0.37200
C1467       C  0.86355280  0.54796101  0.20792784     0.06800
F1468       F  0.87439071  0.54701969  0.23707676    -0.19000
H1469       H  0.88444705  0.57104664  0.24751243     0.16600
F1470       F  0.88022740  0.59788205  0.20637991    -0.22800
H1471       H  0.86890387  0.57427696  0.19637138     0.18400
C1472       C  0.85138201  0.54121099  0.21406255     0.26400
C1473       C  0.84405044  0.53029729  0.20651666    -0.11300
C1474       C  0.84871426  0.52588909  0.19273622    -0.25300
C1475       C  0.86108392  0.53254792  0.18674967     0.37300
C1476       C  0.86834112  0.54345493  0.19428348    -0.26900
F1477       F  0.84622203  0.54556363  0.22708292    -0.19100
H1478       H  0.83462179  0.52539569  0.21143044     0.16600
F1479       F  0.86613619  0.52873436  0.17351713    -0.22800
H1480       H  0.87769983  0.54851471  0.18937830     0.18400
C1481       C  0.93279967  0.57424983  0.23578006    -0.26800
C1482       C  0.93181023  0.56414130  0.24713372     0.06800
C1483       C  0.92075000  0.56579971  0.25747726     0.26400
C1484       C  0.91110881  0.57738409  0.25651625    -0.11300
C1485       C  0.91195831  0.58715966  0.24499610    -0.25300
C1486       C  0.92285816  0.58556723  0.23462841     0.37200
C1487       C  0.94251846  0.55219275  0.24831731     0.06800
F1488       F  0.91896923  0.55600902  0.26827385    -0.19000
H1489       H  0.90272687  0.57858235  0.26458171     0.16600
F1490       F  0.92381265  0.59497624  0.22340280    -0.22800
H1491       H  0.94135178  0.57347191  0.22784388     0.18400
C1492       C  0.94690293  0.54428752  0.23604709     0.26400
C1493       C  0.95754562  0.53363202  0.23724707    -0.11300
C1494       C  0.96360363  0.53025358  0.25073526    -0.25300
C1495       C  0.95894631  0.53778857  0.26305285     0.37300
C1496       C  0.94871173  0.54881770  0.26179402    -0.26900
F1497       F  0.94072474  0.54663725  0.22294583    -0.19100
H1498       H  0.96097290  0.52785342  0.22765642     0.16600
F1499       F  0.96455960  0.53467763  0.27624828    -0.22800
H1500       H  0.94578780  0.55486819  0.27137427     0.18400
C1501       C  0.93750295  0.36323824  0.25920029    -0.26800
C1502       C  0.93594156  0.35976730  0.27390232     0.06800
C1503       C  0.92232500  0.36133947  0.28046795     0.26400
C1504       C  0.91050057  0.36622112  0.27239399    -0.11300
C1505       C  0.91216433  0.36986677  0.25777828    -0.25300
C1506       C  0.92573413  0.36832151  0.25120377     0.37200
C1507       C  0.94844319  0.35417138  0.28221585     0.06800
F1508       F  0.92041639  0.35790073  0.29460446    -0.19000
H1509       H  0.90009627  0.36742687  0.27760228     0.16600
F1510       F  0.92753925  0.37160600  0.23701615    -0.22800
H1511       H  0.94789301  0.36210515  0.25394962     0.18400
C1512       C  0.95583399  0.34176526  0.27754301     0.26400
C1513       C  0.96725402  0.33617795  0.28569549    -0.11300
C1514       C  0.97166633  0.34288321  0.29864017    -0.25300
C1515       C  0.96448456  0.35559206  0.30308613     0.37300
C1516       C  0.95293664  0.36108252  0.29497033    -0.26900
F1517       F  0.95169069  0.33475371  0.26532339    -0.19100
H1518       H  0.97253556  0.32643968  0.28190827     0.16600
F1519       F  0.96843625  0.36264802  0.31533753    -0.22800
H1520       H  0.94747572  0.37077141  0.29864193     0.18400
C1521       C  0.87441179  0.42879260  0.22938280    -0.26800
C1522       C  0.87041052  0.42802557  0.21475322     0.06800
C1523       C  0.87202506  0.41485962  0.20730046     0.26400
C1524       C  0.87734639  0.40264022  0.21446801    -0.11300
C1525       C  0.88140795  0.40344071  0.22905838    -0.25300
C1526       C  0.87992920  0.41662231  0.23648853     0.37200
C1527       C  0.86390025  0.44074492  0.20751119     0.06800
F1528       F  0.86799645  0.41370414  0.19323534    -0.19000
H1529       H  0.87835814  0.39253103  0.20862066     0.16600
F1530       F  0.88332783  0.41758455  0.25072911    -0.22800
H1531       H  0.87316775  0.43882374  0.23531725     0.18400
C1532       C  0.85130319  0.44706700  0.21307330     0.26400
C1533       C  0.84469824  0.45852282  0.20579572    -0.11300
C1534       C  0.85049435  0.46397629  0.19281380    -0.25300
C1535       C  0.86339549  0.45790082  0.18748352     0.37300
C1536       C  0.86995394  0.44633525  0.19475832    -0.26900
F1537       F  0.84503056  0.44176424  0.22523896    -0.19100
H1538       H  0.83481668  0.46292256  0.21023639     0.16600
F1539       F  0.86956396  0.46290524  0.17514872    -0.22800
H1540       H  0.87974487  0.44165906  0.19039144     0.18400
C1541       C  0.92710014  0.41740267  0.23382507    -0.26800
C1542       C  0.93280671  0.42098088  0.24745515     0.06800
C1543       C  0.92740715  0.41387964  0.25979181     0.26400
C1544       C  0.91629930  0.40373196  0.25848168    -0.11300
C1545       C  0.91064202  0.40016602  0.24486743    -0.25300
C1546       C  0.91626584  0.40694591  0.23250210     0.37200
C1547       C  0.94409082  0.43233356  0.24875419     0.06800
F1548       F  0.93305436  0.41651740  0.27308076    -0.19000
H1549       H  0.91211701  0.39856887  0.26811743     0.16600
F1550       F  0.91153883  0.40319701  0.21913399    -0.22800
H1551       H  0.93097239  0.42277300  0.22416769     0.18400
C1552       C  0.95600461  0.43266289  0.23930273     0.26400
C1553       C  0.96623388  0.44374067  0.24034897    -0.11300
C1554       C  0.96495393  0.45449224  0.25098917    -0.25300
C1555       C  0.95321535  0.45406465  0.26058141     0.37300
C1556       C  0.94281374  0.44316750  0.25935504    -0.26900
F1557       F  0.95792753  0.42214624  0.22923881    -0.19100
H1558       H  0.97525307  0.44390982  0.23289474     0.16600
F1559       F  0.95180560  0.46422366  0.27108656    -0.22800
H1560       H  0.93364032  0.44330560  0.26660840     0.18400
C1561       C  0.69929600  0.62947158  0.04515067    -0.26800
C1562       C  0.71405368  0.63222104  0.04734251     0.06800
C1563       C  0.72109534  0.64233072  0.03843801     0.26400
C1564       C  0.71332142  0.64999249  0.02796243    -0.11300
C1565       C  0.69844025  0.64756234  0.02600757    -0.25300
C1566       C  0.69155164  0.63695693  0.03453001     0.37200
C1567       C  0.72173349  0.62535874  0.05962047     0.06800
F1568       F  0.73534514  0.64526921  0.04030355    -0.19000
H1569       H  0.71894887  0.65794548  0.02144689     0.16600
F1570       F  0.67723148  0.63417256  0.03301045    -0.22800
H1571       H  0.69370824  0.62165684  0.05186857     0.18400
C1572       C  0.71664837  0.62731847  0.07378449     0.26400
C1573       C  0.72411703  0.62137457  0.08547343    -0.11300
C1574       C  0.73680351  0.61334632  0.08333375    -0.25300
C1575       C  0.74197594  0.61144017  0.06913513     0.37300
C1576       C  0.73443276  0.61736136  0.05739194    -0.26900
F1577       F  0.70472601  0.63545444  0.07635766    -0.19100
H1578       H  0.71999881  0.62311502  0.09629132     0.16600
F1579       F  0.75455632  0.60437454  0.06661338    -0.22800
H1580       H  0.73858232  0.61584759  0.04655292     0.18400
C1581       C  0.80092893  0.54281887  0.13168727    -0.26800
C1582       C  0.78715206  0.54615627  0.13706219     0.06800
C1583       C  0.78152782  0.53797334  0.14854911     0.26400
C1584       C  0.78981185  0.52701476  0.15485998    -0.11300
C1585       C  0.80381952  0.52389855  0.14978638    -0.25300
C1586       C  0.80917704  0.53175661  0.13788409     0.37200
C1587       C  0.77896462  0.55845524  0.13087692     0.06800
F1588       F  0.76826587  0.54094582  0.15404518    -0.19000
H1589       H  0.78529430  0.52110506  0.16390753     0.16600
F1590       F  0.82248737  0.52903585  0.13240271    -0.22800
H1591       H  0.80535007  0.54889286  0.12269563     0.18400
C1592       C  0.78520564  0.57232958  0.13031729     0.26400
C1593       C  0.77770538  0.58382781  0.12403316    -0.11300
C1594       C  0.76390415  0.58170517  0.11812991    -0.25300
C1595       C  0.75743632  0.56794431  0.11909109     0.37300
C1596       C  0.76495423  0.55640757  0.12539535    -0.26900
F1597       F  0.79848482  0.57479846  0.13604951    -0.19100
H1598       H  0.78276403  0.59440616  0.12360800     0.16600
F1599       F  0.74379375  0.56571840  0.11419213    -0.22800
H1600       H  0.75991072  0.54582649  0.12586123     0.18400
C1601       C  0.73669351  0.56834241  0.06998559    -0.26800
C1602       C  0.74926189  0.56055430  0.06648528     0.06800
C1603       C  0.76209341  0.56364282  0.07413921     0.26400
C1604       C  0.76234765  0.57472729  0.08444518    -0.11300
C1605       C  0.74972749  0.58244052  0.08782611    -0.25300
C1606       C  0.73677983  0.57873377  0.08087362     0.37200
C1607       C  0.74875624  0.54962199  0.05465081     0.06800
F1608       F  0.77433803  0.55591523  0.07184516    -0.19000
H1609       H  0.77243803  0.57735704  0.08975276     0.16600
F1610       F  0.72417789  0.58521355  0.08456268    -0.22800
H1611       H  0.72670751  0.56657804  0.06416664     0.18400
C1612       C  0.73633478  0.54100426  0.05255964     0.26400
C1613       C  0.73520436  0.53199303  0.04055604    -0.11300
C1614       C  0.74689415  0.53026387  0.03113026    -0.25300
C1615       C  0.75960334  0.53823889  0.03348907     0.37300
C1616       C  0.76033324  0.54818067  0.04487246    -0.26900
F1617       F  0.72547576  0.54078501  0.06240552    -0.19100
H1618       H  0.72549869  0.52557886  0.03910373     0.16600
F1619       F  0.77130656  0.53630718  0.02486754    -0.22800
H1620       H  0.76994922  0.55476518  0.04594660     0.18400
C1621       C  0.74548403  0.35104868  0.06076425    -0.26800
C1622       C  0.73192842  0.35729649  0.05792834     0.06800
C1623       C  0.72774986  0.36965799  0.06581723     0.26400
C1624       C  0.73692367  0.37543952  0.07637418    -0.11300
C1625       C  0.75018823  0.36881417  0.07948231    -0.25300
C1626       C  0.75444926  0.35662083  0.07155321     0.37200
C1627       C  0.72199390  0.35018248  0.04747126     0.06800
F1628       F  0.71449007  0.37563159  0.06399862    -0.19000
H1629       H  0.73337375  0.38470562  0.08259990     0.16600
F1630       F  0.76727721  0.35007650  0.07428430    -0.22800
H1631       H  0.74904757  0.34164105  0.05476483     0.18400
C1632       C  0.71417011  0.35817054  0.03712810     0.26400
C1633       C  0.70484921  0.35109720  0.02752836    -0.11300
C1634       C  0.70351575  0.33595539  0.02774930    -0.25300
C1635       C  0.71144205  0.32795645  0.03793211     0.37300
C1636       C  0.72044025  0.33503384  0.04776608    -0.26900
F1637       F  0.71592762  0.37270815  0.03588018    -0.19100
H1638       H  0.69899956  0.35742891  0.01960096     0.16600
F1639       F  0.71027630  0.31331401  0.03859419    -0.22800
H1640       H  0.72617981  0.32862357  0.05570731     0.18400
C1641       C  0.77928121  0.41696221  0.13444692    -0.26800
C1642       C  0.78862727  0.42610038  0.12669491     0.06800
C1643       C  0.79176137  0.42277928  0.11215984     0.26400
C1644       C  0.78563595  0.41055009  0.10563369    -0.11300
C1645       C  0.77627885  0.40149051  0.11344573    -0.25300
C1646       C  0.77312920  0.40481535  0.12790267     0.37200
C1647       C  0.79533241  0.43873495  0.13405079     0.06800
F1648       F  0.80059749  0.43141425  0.10421885    -0.19000
H1649       H  0.78835784  0.40806067  0.09452838     0.16600
F1650       F  0.76391425  0.39641558  0.13565375    -0.22800
H1651       H  0.77688298  0.41911105  0.14569858     0.18400
C1652       C  0.78702880  0.44806446  0.14275619     0.26400
C1653       C  0.79362214  0.45936882  0.15037197    -0.11300
C1654       C  0.80854462  0.46177408  0.14924235    -0.25300
C1655       C  0.81682418  0.45258175  0.14036737     0.37300
C1656       C  0.81026743  0.44114472  0.13295067    -0.26900
F1657       F  0.77249275  0.44640485  0.14372429    -0.19100
H1658       H  0.78700695  0.46639207  0.15699546     0.16600
F1659       F  0.83134301  0.45432385  0.13921235    -0.22800
H1660       H  0.81695295  0.43394982  0.12658988     0.18400
C1661       C  0.74273888  0.43848155  0.04907763    -0.26800
C1662       C  0.75659723  0.43472019  0.05390322     0.06800
C1663       C  0.76874228  0.44171068  0.04799066     0.26400
C1664       C  0.76699777  0.45216394  0.03722357    -0.11300
C1665       C  0.75315883  0.45561081  0.03216969    -0.25300
C1666       C  0.74101503  0.44884595  0.03824039     0.37200
C1667       C  0.75835208  0.42287518  0.06442761     0.06800
F1668       F  0.78224204  0.43846437  0.05270198    -0.19000
H1669       H  0.77640345  0.45752106  0.03274787     0.16600
F1670       F  0.72753129  0.45226217  0.03360707    -0.22800
H1671       H  0.73329143  0.43312880  0.05347171     0.18400
C1672       C  0.75161824  0.42338147  0.07804036     0.26400
C1673       C  0.75324993  0.41186919  0.08771894    -0.11300
C1674       C  0.76137772  0.39969512  0.08380412    -0.25300
C1675       C  0.76798264  0.39915134  0.07018356     0.37300
C1676       C  0.76653703  0.41070390  0.06060268    -0.26900
F1677       F  0.74368430  0.43506748  0.08201445    -0.19100
H1678       H  0.74815021  0.41235590  0.09823736     0.16600
F1679       F  0.77605675  0.38753857  0.06631851    -0.22800
H1680       H  0.77167671  0.41010154  0.05010270     0.18400
C1681       C  0.73590399  0.62130316  0.93509594    -0.26800
C1682       C  0.72228329  0.62741213  0.93232966     0.06800
C1683       C  0.71706636  0.62774406  0.91805432     0.26400
C1684       C  0.72543216  0.62223553  0.90677217    -0.11300
C1685       C  0.73902691  0.61620150  0.90954566    -0.25300
C1686       C  0.74421965  0.61568034  0.92379916     0.37200
C1687       C  0.71410782  0.63446542  0.94413579     0.06800
F1688       F  0.70419424  0.63401701  0.91492548    -0.19000
H1689       H  0.72136729  0.62281178  0.89580329     0.16600
F1690       F  0.75758191  0.61039517  0.92669189    -0.22800
H1691       H  0.74017803  0.62110367  0.94599742     0.18400
C1692       C  0.69958605  0.63094059  0.94689157     0.26400
C1693       C  0.69185524  0.63837643  0.95756406    -0.11300
C1694       C  0.69844147  0.64949834  0.96561392    -0.25300
C1695       C  0.71310225  0.65276922  0.96299243     0.37300
C1696       C  0.72080097  0.64527912  0.95240515    -0.26900
F1697       F  0.69292800  0.62022807  0.93935284    -0.19100
H1698       H  0.68065916  0.63551983  0.95941725     0.16600
F1699       F  0.72010139  0.66316108  0.97067038    -0.22800
H1700       H  0.73198031  0.64815098  0.95043978     0.18400
C1701       C  0.76298934  0.56072039  0.86521268    -0.26800
C1702       C  0.77783829  0.55989188  0.86225587     0.06800
C1703       C  0.78680728  0.57168745  0.86588968     0.26400
C1704       C  0.78103927  0.58386395  0.87271281    -0.11300
C1705       C  0.76630310  0.58445841  0.87601677    -0.25300
C1706       C  0.75724050  0.57292494  0.87203021     0.37200
C1707       C  0.78392113  0.54683487  0.85524564     0.06800
F1708       F  0.80107442  0.57159302  0.86251248    -0.19000
H1709       H  0.78807205  0.59284524  0.87544655     0.16600
F1710       F  0.74278507  0.57367970  0.87431673    -0.22800
H1711       H  0.75586488  0.55187008  0.86230880     0.18400
C1712       C  0.79610496  0.53996295  0.86110187     0.26400
C1713       C  0.80251129  0.52841067  0.85385345    -0.11300
C1714       C  0.79686358  0.52332260  0.84066477    -0.25300
C1715       C  0.78413676  0.52966546  0.83523035     0.37300
C1716       C  0.77776901  0.54133885  0.84248094    -0.26900
F1717       F  0.80183632  0.54441986  0.87386533    -0.19100
H1718       H  0.81210016  0.52360413  0.85852292     0.16600
F1719       F  0.77802897  0.52489058  0.82276877    -0.22800
H1720       H  0.76825873  0.54637638  0.83788841     0.18400
C1721       C  0.76000056  0.56776146  0.92217529    -0.26800
C1722       C  0.74605400  0.56195148  0.92410322     0.06800
C1723       C  0.73446037  0.56813558  0.91638962     0.26400
C1724       C  0.73680940  0.57991437  0.90717334    -0.11300
C1725       C  0.75073934  0.58549014  0.90519262    -0.25300
C1726       C  0.76235926  0.57929367  0.91266406     0.37200
C1727       C  0.74369938  0.54975554  0.93440264     0.06800
F1728       F  0.72091478  0.56261402  0.91748337    -0.19000
H1729       H  0.72780164  0.58459590  0.90135937     0.16600
F1730       F  0.77589399  0.58472303  0.91106551    -0.22800
H1731       H  0.76907761  0.56352392  0.92821422     0.18400
C1732       C  0.75334679  0.53797698  0.93495108     0.26400
C1733       C  0.75171270  0.52720975  0.94543927    -0.11300
C1734       C  0.74036841  0.52782635  0.95546063    -0.25300
C1735       C  0.73028586  0.53912312  0.95450991     0.37300
C1736       C  0.73204669  0.55006599  0.94418186    -0.26900
F1737       F  0.76439598  0.53685733  0.92538156    -0.19100
H1738       H  0.75952300  0.51850373  0.94597098     0.16600
F1739       F  0.71900906  0.53977399  0.96385254    -0.22800
H1740       H  0.72452658  0.55902695  0.94414814     0.18400
C1741       C  0.72154494  0.33786848  0.95119940    -0.26800
C1742       C  0.71534677  0.34968022  0.94397770     0.06800
C1743       C  0.70143618  0.35425561  0.94789799     0.26400
C1744       C  0.69399314  0.34724773  0.95906368    -0.11300
C1745       C  0.70016860  0.33538912  0.96636174    -0.25300
C1746       C  0.71403728  0.33068958  0.96219838     0.37200
C1747       C  0.72337992  0.35685465  0.93213147     0.06800
F1748       F  0.69515422  0.36564354  0.94109129    -0.19000
H1749       H  0.68332687  0.35108006  0.96193897     0.16600
F1750       F  0.72046315  0.31927169  0.96881243    -0.22800
H1751       H  0.73219800  0.33409816  0.94817957     0.18400
C1752       C  0.73692207  0.36328769  0.93469622     0.26400
C1753       C  0.74496136  0.36899715  0.92319879    -0.11300
C1754       C  0.73968349  0.36817398  0.90899102    -0.25300
C1755       C  0.72600135  0.36206956  0.90649395     0.37300
C1756       C  0.71787719  0.35655948  0.91800011    -0.26900
F1757       F  0.74237313  0.36394148  0.94830777    -0.19100
H1758       H  0.75548132  0.37368395  0.92532601     0.16600
F1759       F  0.72051036  0.36146142  0.89290155    -0.22800
H1760       H  0.70745873  0.35166158  0.91583380     0.18400
C1761       C  0.78751796  0.41109754  0.86192539    -0.26800
C1762       C  0.78021376  0.42441080  0.86191810     0.06800
C1763       C  0.76670809  0.42536823  0.86879381     0.26400
C1764       C  0.76072240  0.41321445  0.87559146    -0.11300
C1765       C  0.76808202  0.39990834  0.87568938    -0.25300
C1766       C  0.78152715  0.39894974  0.86868960     0.37200
C1767       C  0.78678990  0.43716403  0.85468798     0.06800
F1768       F  0.75939833  0.43809303  0.86911102    -0.19000
H1769       H  0.75017540  0.41416696  0.88052503     0.16600
F1770       F  0.78898950  0.38631698  0.86854557    -0.22800
H1771       H  0.79786330  0.41008332  0.85656091     0.18400
C1772       C  0.80093144  0.44153900  0.85810305     0.26400
C1773       C  0.80728207  0.45325409  0.85093820    -0.11300
C1774       C  0.79974536  0.46079143  0.84010811    -0.25300
C1775       C  0.78550485  0.45645826  0.83675795     0.37300
C1776       C  0.77911501  0.44479921  0.84404884    -0.26900
F1777       F  0.80857242  0.43455816  0.86850007    -0.19100
H1778       H  0.81822527  0.45629976  0.85376700     0.16600
F1779       F  0.77770322  0.46346225  0.82648960    -0.22800
H1780       H  0.76823489  0.44154616  0.84119144     0.18400
C1781       C  0.73813430  0.41525711  0.91875860    -0.26800
C1782       C  0.75048298  0.42039002  0.92593362     0.06800
C1783       C  0.76404023  0.41435224  0.92273596     0.26400
C1784       C  0.76517966  0.40343291  0.91238223    -0.11300
C1785       C  0.75282920  0.39829856  0.90529482    -0.25300
C1786       C  0.73929096  0.40426428  0.90848674     0.37200
C1787       C  0.74910917  0.43194608  0.93681572     0.06800
F1788       F  0.77606974  0.41871493  0.92992912    -0.19000
H1789       H  0.77562902  0.39873546  0.91005089     0.16600
F1790       F  0.72729458  0.39958812  0.90145859    -0.22800
H1791       H  0.72762789  0.41985711  0.92105333     0.18400
C1792       C  0.75726922  0.44473497  0.93563970     0.26400
C1793       C  0.75596352  0.45554155  0.94607148    -0.11300
C1794       C  0.74641774  0.45380052  0.95770241    -0.25300
C1795       C  0.73818283  0.44106508  0.95885364     0.37300
C1796       C  0.73951379  0.43022678  0.94843259    -0.26900
F1797       F  0.76627733  0.44687969  0.92426544    -0.19100
H1798       H  0.76238844  0.46530954  0.94510291     0.16600
F1799       F  0.72893578  0.43913270  0.97007652    -0.22800
H1800       H  0.73317566  0.42041121  0.94948946     0.18400
C1801       C  0.06995190  0.62020811  0.72062945    -0.26800
C1802       C  0.06527090  0.63406859  0.72480996     0.06800
C1803       C  0.07278085  0.64129976  0.73591256     0.26400
C1804       C  0.08446687  0.63465327  0.74281942    -0.11300
C1805       C  0.08900898  0.62072433  0.73878543    -0.25300
C1806       C  0.08183511  0.61368720  0.72734275     0.37200
C1807       C  0.05278658  0.64102625  0.71739638     0.06800
F1808       F  0.06908302  0.65495870  0.73984177    -0.19000
H1809       H  0.08996877  0.64040744  0.75141897     0.16600
F1810       F  0.08656244  0.60076076  0.72226702    -0.22800
H1811       H  0.06442314  0.61441159  0.71208094     0.18400
C1812       C  0.05180502  0.64118576  0.70220854     0.26400
C1813       C  0.04012176  0.64788647  0.69534539    -0.11300
C1814       C  0.02928880  0.65479097  0.70341562    -0.25300
C1815       C  0.03020925  0.65460622  0.71860488     0.37300
C1816       C  0.04178815  0.64769328  0.72548662    -0.26900
F1817       F  0.06240992  0.63533418  0.69395368    -0.19100
H1818       H  0.03976736  0.64803331  0.68364198     0.16600
F1819       F  0.01980479  0.66086982  0.72681699    -0.22800
H1820       H  0.04213191  0.64750203  0.73718765     0.18400
C1821       C  0.14883598  0.53887230  0.77897356    -0.26800
C1822       C  0.14080872  0.54912380  0.78678623     0.06800
C1823       C  0.13997031  0.54771882  0.80194063     0.26400
C1824       C  0.14738958  0.53656074  0.80905089    -0.11300
C1825       C  0.15594921  0.52675060  0.80124147    -0.25300
C1826       C  0.15641739  0.52789737  0.78607267     0.37200
C1827       C  0.13395884  0.56152454  0.77907114     0.06800
F1828       F  0.13257592  0.55752073  0.80996112    -0.19000
H1829       H  0.14687875  0.53592983  0.82073123     0.16600
F1830       F  0.16416039  0.51836217  0.77804917    -0.22800
H1831       H  0.14936993  0.53945028  0.76729251     0.18400
C1832       C  0.14185456  0.56956672  0.76881869     0.26400
C1833       C  0.13554570  0.58134022  0.76175275    -0.11300
C1834       C  0.12126762  0.58545689  0.76471316    -0.25300
C1835       C  0.11335833  0.57753370  0.77503992     0.37300
C1836       C  0.11962761  0.56561020  0.78202910    -0.26900
F1837       F  0.15588287  0.56639748  0.76598772    -0.19100
H1838       H  0.14192473  0.58739518  0.75401132     0.16600
F1839       F  0.09985873  0.58168199  0.77891357    -0.22800
H1840       H  0.11329533  0.55962384  0.78985277     0.18400
C1841       C  0.06650217  0.58110951  0.75331610    -0.26800
C1842       C  0.06980342  0.56784991  0.74675121     0.06800
C1843       C  0.08387707  0.56526095  0.74177803     0.26400
C1844       C  0.09454606  0.57586951  0.74342934    -0.11300
C1845       C  0.09126353  0.58915876  0.75001429    -0.25300
C1846       C  0.07714651  0.59170647  0.75496745     0.37200
C1847       C  0.05880850  0.55634376  0.74630562     0.06800
F1848       F  0.08733384  0.55237096  0.73565665    -0.19000
H1849       H  0.10536775  0.57379737  0.73952361     0.16600
F1850       F  0.07378630  0.60430205  0.76170912    -0.22800
H1851       H  0.05571926  0.58312538  0.75737753     0.18400
C1852       C  0.05566945  0.54851773  0.75891130     0.26400
C1853       C  0.04500066  0.53782986  0.75875278    -0.11300
C1854       C  0.03726441  0.53492525  0.74605304    -0.25300
C1855       C  0.04043914  0.54268176  0.73337946     0.37300
C1856       C  0.05123228  0.55332943  0.73350819    -0.26900
F1857       F  0.06294944  0.55127388  0.77135536    -0.19100
H1858       H  0.04263012  0.53190082  0.76857605     0.16600
F1859       F  0.03304838  0.53997612  0.72099419    -0.22800
H1860       H  0.05356685  0.55933969  0.72372668     0.18400
C1861       C  0.04939872  0.36068070  0.69935409    -0.26800
C1862       C  0.05332933  0.35618358  0.71330014     0.06800
C1863       C  0.04619252  0.34427172  0.71950678     0.26400
C1864       C  0.03579807  0.33661865  0.71160123    -0.11300
C1865       C  0.03215050  0.34079519  0.69743498    -0.25300
C1866       C  0.03886183  0.35317193  0.69150133     0.37200
C1867       C  0.06553307  0.36331704  0.72087483     0.06800
F1868       F  0.04968358  0.33966359  0.73299427    -0.19000
H1869       H  0.03065978  0.32733090  0.71657837     0.16600
F1870       F  0.03552338  0.35789748  0.67801487    -0.22800
H1871       H  0.05465637  0.36995480  0.69446438     0.18400
C1872       C  0.07916794  0.36412326  0.71423325     0.26400
C1873       C  0.09089011  0.37019159  0.72158449    -0.11300
C1874       C  0.08921315  0.37570829  0.73560209    -0.25300
C1875       C  0.07559436  0.37493133  0.74228490     0.37300
C1876       C  0.06384803  0.36878891  0.73494441    -0.26900
F1877       F  0.08127331  0.35852248  0.70083409    -0.19100
H1878       H  0.10135352  0.37050806  0.71635788     0.16600
F1879       F  0.07381160  0.37944449  0.75612687    -0.22800
H1880       H  0.05346144  0.36815574  0.74029051     0.18400
C1881       C  0.13692600  0.41553250  0.78536657    -0.26800
C1882       C  0.13537303  0.42983873  0.78054067     0.06800
C1883       C  0.12702043  0.43260271  0.76816041     0.26400
C1884       C  0.12058486  0.42119001  0.76057546    -0.11300
C1885       C  0.12223094  0.40682389  0.76527911    -0.25300
C1886       C  0.13047899  0.40410270  0.77779850     0.37200
C1887       C  0.14311510  0.44176260  0.78793926     0.06800
F1888       F  0.12514538  0.44636866  0.76338458    -0.19000
H1889       H  0.11466027  0.42360538  0.75078849     0.16600
F1890       F  0.13232298  0.39038706  0.78273652    -0.22800
H1891       H  0.14341791  0.41319234  0.79482650     0.18400
C1892       C  0.14074485  0.44479528  0.80262753     0.26400
C1893       C  0.14809623  0.45624342  0.80933909    -0.11300
C1894       C  0.15810535  0.46470855  0.80158124    -0.25300
C1895       C  0.16055883  0.46146656  0.78688968     0.37300
C1896       C  0.15306790  0.45016914  0.78018323    -0.26900
F1897       F  0.13113720  0.43685925  0.81039224    -0.19100
H1898       H  0.14603595  0.45839704  0.82065823     0.16600
F1899       F  0.17008497  0.46926556  0.77889440    -0.22800
H1900       H  0.15512456  0.44788392  0.76888371     0.18400
C1901       C  0.04744703  0.43732310  0.74131743    -0.26800
C1902       C  0.05943067  0.43865480  0.75057337     0.06800
C1903       C  0.06049401  0.45095542  0.75951078     0.26400
C1904       C  0.04958824  0.46143305  0.75943988    -0.11300
C1905       C  0.03755067  0.46000990  0.75030081    -0.25300
C1906       C  0.03663330  0.44789846  0.74112236     0.37200
C1907       C  0.07079301  0.42727542  0.75066173     0.06800
F1908       F  0.07226178  0.45306487  0.76801542    -0.19000
H1909       H  0.05056676  0.47076680  0.76646544     0.16600
F1910       F  0.02531084  0.44635098  0.73192004    -0.22800
H1911       H  0.04640991  0.42800033  0.73428608     0.18400
C1912       C  0.07574248  0.42114524  0.76370892     0.26400
C1913       C  0.08636679  0.41038455  0.76356067    -0.11300
C1914       C  0.09207971  0.40541080  0.75044862    -0.25300
C1915       C  0.08714040  0.41144248  0.73741982     0.37300
C1916       C  0.07659736  0.42226812  0.73754436    -0.26900
F1917       F  0.06998212  0.42520054  0.77656733    -0.19100
H1918       H  0.09001313  0.40572071  0.77365993     0.16600
F1919       F  0.09277187  0.40705815  0.72461202    -0.22800
H1920       H  0.07304979  0.42686227  0.72737398     0.18400
C1921       C  0.91728539  0.63018040  0.71301871    -0.26800
C1922       C  0.93069428  0.63012161  0.72010294     0.06800
C1923       C  0.93180862  0.62375338  0.73386657     0.26400
C1924       C  0.91966248  0.61767387  0.74044729    -0.11300
C1925       C  0.90625758  0.61776461  0.73338432    -0.25300
C1926       C  0.90512402  0.62411945  0.71962038     0.37200
C1927       C  0.94325205  0.63749366  0.71350705     0.06800
F1928       F  0.94466432  0.62337910  0.74091480    -0.19000
H1929       H  0.92069058  0.61300620  0.75113854     0.16600
F1930       F  0.89228860  0.62436030  0.71252200    -0.22800
H1931       H  0.91617764  0.63520931  0.70249764     0.18400
C1932       C  0.94782580  0.63418306  0.69940591     0.26400
C1933       C  0.95944823  0.64167572  0.69324629    -0.11300
C1934       C  0.96658548  0.65268606  0.70098464    -0.25300
C1935       C  0.96204441  0.65581373  0.71518853     0.37300
C1936       C  0.95051269  0.64827758  0.72132096    -0.26900
F1937       F  0.94112826  0.62364989  0.69164900    -0.19100
H1938       H  0.96269162  0.63902209  0.68231856     0.16600
F1939       F  0.96867981  0.66617573  0.72321754    -0.22800
H1940       H  0.94705882  0.65106176  0.73215610     0.18400
C1941       C  0.85922669  0.57583932  0.78121809    -0.26800
C1942       C  0.85923225  0.56192103  0.77510240     0.06800
C1943       C  0.86607668  0.55979564  0.76166345     0.26400
C1944       C  0.87289007  0.57136390  0.75463471    -0.11300
C1945       C  0.87287232  0.58522037  0.76081303    -0.25300
C1946       C  0.86594465  0.58739194  0.77415081     0.37200
C1947       C  0.85216917  0.54971055  0.78283064     0.06800
F1948       F  0.86635700  0.54650275  0.75542137    -0.19000
H1949       H  0.87798485  0.56955926  0.74425500     0.16600
F1950       F  0.86584799  0.60067696  0.78043759    -0.22800
H1951       H  0.85387533  0.57780327  0.79143749     0.18400
C1952       C  0.85513153  0.54701702  0.79751029     0.26400
C1953       C  0.84865245  0.53531090  0.80460914    -0.11300
C1954       C  0.83896005  0.52613867  0.79730085    -0.25300
C1955       C  0.83583532  0.52899090  0.78265377     0.37300
C1956       C  0.84240627  0.54063421  0.77554067    -0.26900
F1957       F  0.86454206  0.55551411  0.80492948    -0.19100
H1958       H  0.85117242  0.53348489  0.81589634     0.16600
F1959       F  0.82659540  0.52043685  0.77509138    -0.22800
H1960       H  0.83977736  0.54262597  0.76430523     0.18400
C1961       C  0.91884096  0.57012439  0.76048974    -0.26800
C1962       C  0.92709156  0.56733363  0.74799356     0.06800
C1963       C  0.92351582  0.57485172  0.73520139     0.26400
C1964       C  0.91182812  0.58442010  0.73490673    -0.11300
C1965       C  0.90392967  0.58752581  0.74748864    -0.25300
C1966       C  0.90771273  0.58039090  0.76037823     0.37200
C1967       C  0.93922874  0.55658661  0.74833361     0.06800
F1968       F  0.93158702  0.57341791  0.72304757    -0.19000
H1969       H  0.90915725  0.58973929  0.72483190     0.16600
F1970       F  0.90101766  0.58366234  0.77299338    -0.22800
H1971       H  0.92100308  0.56440814  0.77046349     0.18400
C1972       C  0.94835809  0.55524682  0.76050694     0.26400
C1973       C  0.95920089  0.54469010  0.76087376    -0.11300
C1974       C  0.96169478  0.53567806  0.74892638    -0.25300
C1975       C  0.95305967  0.53737771  0.73654227     0.37300
C1976       C  0.94173040  0.54739541  0.73643106    -0.26900
F1977       F  0.94710295  0.56433143  0.77196150    -0.19100
H1978       H  0.96584227  0.54366079  0.77046230     0.16600
F1979       F  0.95536923  0.52906820  0.72466287    -0.22800
H1980       H  0.93479755  0.54777504  0.72702203     0.18400
C1981       C  0.94170732  0.36655971  0.73938927    -0.26800
C1982       C  0.93913080  0.36021738  0.72580787     0.06800
C1983       C  0.92488352  0.35941545  0.72061030     0.26400
C1984       C  0.91348695  0.36493115  0.72879199    -0.11300
C1985       C  0.91603574  0.37142871  0.74225686    -0.25300
C1986       C  0.93025838  0.37219290  0.74755826     0.37200
C1987       C  0.95113528  0.35388174  0.71729468     0.06800
F1988       F  0.92192131  0.35282043  0.70783249    -0.19000
H1989       H  0.90257957  0.36405315  0.72463216     0.16600
F1990       F  0.93300749  0.37779688  0.76083976    -0.22800
H1991       H  0.95258654  0.36708880  0.74367166     0.18400
C1992       C  0.95344244  0.35798343  0.70283721     0.26400
C1993       C  0.96396159  0.35103258  0.69449758    -0.11300
C1994       C  0.97233941  0.33980023  0.70037408    -0.25300
C1995       C  0.97035103  0.33607270  0.71504599     0.37300
C1996       C  0.95987997  0.34309975  0.72338267    -0.26900
F1997       F  0.94547455  0.36870762  0.69677128    -0.19100
H1998       H  0.96533711  0.35426250  0.68332843     0.16600
F1999       F  0.97847042  0.32561837  0.72138562    -0.22800
H2000       H  0.95831183  0.33982761  0.73451914     0.18400
C2001       C  0.86775421  0.41446912  0.78807649    -0.26800
C2002       C  0.86606858  0.42693954  0.77956840     0.06800
C2003       C  0.87211333  0.42733279  0.76565006     0.26400
C2004       C  0.87972602  0.41537684  0.76036158    -0.11300
C2005       C  0.88122978  0.40283327  0.76880549    -0.25300
C2006       C  0.87512894  0.40242910  0.78269044     0.37200
C2007       C  0.85829953  0.43957544  0.78550155     0.06800
F2008       F  0.87080698  0.43933452  0.75728525    -0.19000
H2009       H  0.88421306  0.41579769  0.74956002     0.16600
F2010       F  0.87648478  0.39046155  0.79109776    -0.22800
H2011       H  0.86320732  0.41403088  0.79885594     0.18400
C2012       C  0.84540873  0.44454659  0.77921944     0.26400
C2013       C  0.83786386  0.45610444  0.78546391    -0.11300
C2014       C  0.84309015  0.46292760  0.79803331    -0.25300
C2015       C  0.85623335  0.45804460  0.80406883     0.37300
C2016       C  0.86364105  0.44644624  0.79788525    -0.26900
F2017       F  0.83986475  0.43788540  0.76736764    -0.19100
H2018       H  0.82779350  0.45952941  0.78059729     0.16600
F2019       F  0.86190560  0.46426240  0.81609994    -0.22800
H2020       H  0.87359465  0.44275603  0.80281681     0.18400
C2021       C  0.92661404  0.41947943  0.76844873    -0.26800
C2022       C  0.93110736  0.42539384  0.75517281     0.06800
C2023       C  0.92566395  0.41930626  0.74225733     0.26400
C2024       C  0.91619562  0.40748864  0.74272865    -0.11300
C2025       C  0.91171560  0.40177255  0.75600809    -0.25300
C2026       C  0.91686476  0.40793431  0.76887554     0.37200
C2027       C  0.94178371  0.43750171  0.75492696     0.06800
F2028       F  0.92919452  0.42495385  0.72918113    -0.19000
H2029       H  0.91210714  0.40293208  0.73274451     0.16600
F2030       F  0.91270943  0.40250355  0.78185438    -0.22800
H2031       H  0.93084919  0.42360973  0.77854994     0.18400
C2032       C  0.94097026  0.44906976  0.76487100     0.26400
C2033       C  0.95153076  0.45993485  0.76492774    -0.11300
C2034       C  0.96279125  0.45978183  0.75478096    -0.25300
C2035       C  0.96343071  0.44846323  0.74465352     0.37300
C2036       C  0.95320725  0.43733719  0.74491850    -0.26900
F2037       F  0.92980881  0.45009746  0.77432006    -0.19100
H2038       H  0.95080993  0.46863303  0.77274820     0.16600
F2039       F  0.97398935  0.44818847  0.73448144    -0.22800
H2040       H  0.95436225  0.42848201  0.73734643     0.18400
C2041       C  0.27758132  0.64683435  0.03797492    -0.26800
C2042       C  0.28490242  0.64002299  0.04940026     0.06800
C2043       C  0.30011906  0.64011154  0.04944854     0.26400
C2044       C  0.30776328  0.64723516  0.03846224    -0.11300
C2045       C  0.30037591  0.65454866  0.02739727    -0.25300
C2046       C  0.28519504  0.65410095  0.02713569     0.37200
C2047       C  0.27654830  0.63342562  0.06145033     0.06800
F2048       F  0.30758390  0.63390918  0.06045097    -0.19000
H2049       H  0.31945327  0.64748666  0.03888985     0.16600
F2050       F  0.27770269  0.66057702  0.01630548    -0.22800
H2051       H  0.26589187  0.64663646  0.03751737     0.18400
C2052       C  0.26553128  0.64131515  0.06834183     0.26400
C2053       C  0.25774801  0.63518881  0.07974036    -0.11300
C2054       C  0.26068641  0.62107470  0.08448814    -0.25300
C2055       C  0.27180664  0.61319697  0.07774390     0.37300
C2056       C  0.27959270  0.61931872  0.06627208    -0.26900
F2057       F  0.26254834  0.65512951  0.06432971    -0.19100
H2058       H  0.24935800  0.64150676  0.08489718     0.16600
F2059       F  0.27553275  0.59983832  0.08255732    -0.22800
H2060       H  0.28803429  0.61304041  0.06115994     0.18400
C2061       C  0.22825467  0.57116453  0.13671341    -0.26800
C2062       C  0.21747945  0.56400292  0.12872211     0.06800
C2063       C  0.21414794  0.56912225  0.11475477     0.26400
C2064       C  0.22154012  0.58107733  0.10900286    -0.11300
C2065       C  0.23244281  0.58804553  0.11698965    -0.25300
C2066       C  0.23571623  0.58295552  0.13091783     0.37200
C2067       C  0.20978819  0.55140721  0.13525283     0.06800
F2068       F  0.20395752  0.56244490  0.10656083    -0.19000
H2069       H  0.21868619  0.58493699  0.09832592     0.16600
F2070       F  0.24635329  0.58922078  0.13886560    -0.22800
H2071       H  0.23086181  0.56769087  0.14758503     0.18400
C2072       C  0.21751661  0.54068170  0.14282206     0.26400
C2073       C  0.21021598  0.52969112  0.15019722    -0.11300
C2074       C  0.19509063  0.52884862  0.14987317    -0.25300
C2075       C  0.18733084  0.53913705  0.14177988     0.37300
C2076       C  0.19462928  0.55039825  0.13468879    -0.26900
F2077       F  0.23217675  0.54072851  0.14300153    -0.19100
H2078       H  0.21644108  0.52170103  0.15607794     0.16600
F2079       F  0.17268586  0.53867454  0.14120974    -0.22800
H2080       H  0.18837959  0.55856961  0.12910563     0.18400
C2081       C  0.25768408  0.54983867  0.05131376    -0.26800
C2082       C  0.24526852  0.55826202  0.05359693     0.06800
C2083       C  0.23289709  0.55569782  0.04510990     0.26400
C2084       C  0.23296570  0.54474403  0.03469350    -0.11300
C2085       C  0.24530679  0.53622543  0.03267025    -0.25300
C2086       C  0.25770291  0.53885991  0.04096651     0.37200
C2087       C  0.24531295  0.56950403  0.06498586     0.06800
F2088       F  0.22065819  0.56350732  0.04713549    -0.19000
H2089       H  0.22338545  0.54282516  0.02823881     0.16600
F2090       F  0.26983959  0.53090269  0.03890939    -0.22800
H2091       H  0.26740878  0.55181954  0.05752584     0.18400
C2092       C  0.25016781  0.56619795  0.07901235     0.26400
C2093       C  0.25054618  0.57690409  0.08963292    -0.11300
C2094       C  0.24586036  0.59099382  0.08655140    -0.25300
C2095       C  0.24079303  0.59428170  0.07261392     0.37300
C2096       C  0.24063687  0.58363016  0.06189157    -0.26900
F2097       F  0.25426506  0.55253700  0.08252545    -0.19100
H2098       H  0.25446818  0.57422313  0.10032933     0.16600
F2099       F  0.23578420  0.60771447  0.06946789    -0.22800
H2100       H  0.23693144  0.58643018  0.05114379     0.18400
C2101       C  0.28146847  0.34257428  0.04440416    -0.26800
C2102       C  0.28722560  0.35523194  0.05046820     0.06800
C2103       C  0.30028510  0.36080206  0.04507251     0.26400
C2104       C  0.30747298  0.35374476  0.03381076    -0.11300
C2105       C  0.30181160  0.34096343  0.02777601    -0.25300
C2106       C  0.28864244  0.33546218  0.03320055     0.37200
C2107       C  0.27969710  0.36240057  0.06259978     0.06800
F2108       F  0.30599218  0.37317255  0.05058768    -0.19000
H2109       H  0.31753305  0.35826301  0.02988291     0.16600
F2110       F  0.28274282  0.32307846  0.02791163    -0.22800
H2111       H  0.27149377  0.33804022  0.04854311     0.18400
C2112       C  0.26514874  0.36658846  0.06133433     0.26400
C2113       C  0.25819294  0.37340914  0.07288415    -0.11300
C2114       C  0.26552596  0.37577171  0.08593415    -0.25300
C2115       C  0.27995957  0.37134604  0.08731132     0.37300
C2116       C  0.28702903  0.36486522  0.07565791    -0.26900
F2117       F  0.25771796  0.36415798  0.04891333    -0.19100
H2118       H  0.24697833  0.37654755  0.07177729     0.16600
F2119       F  0.28723113  0.37341348  0.09989079    -0.22800
H2120       H  0.29817253  0.36152797  0.07689426     0.18400
C2121       C  0.19986619  0.44856123  0.13065593    -0.26800
C2122       C  0.21334691  0.44409688  0.13593866     0.06800
C2123       C  0.21929948  0.45118989  0.14798162     0.26400
C2124       C  0.21175818  0.46240965  0.15472569    -0.11300
C2125       C  0.19813413  0.46682890  0.14960116    -0.25300
C2126       C  0.19231899  0.45983539  0.13734872     0.37200
C2127       C  0.22103571  0.43185822  0.12906861     0.06800
F2128       F  0.23218144  0.44691754  0.15354336    -0.19000
H2129       H  0.21653755  0.46748895  0.16413725     0.16600
F2130       F  0.17925613  0.46367362  0.13192375    -0.22800
H2131       H  0.19516457  0.44326714  0.12131827     0.18400
C2132       C  0.21438638  0.41820925  0.12780278     0.26400
C2133       C  0.22200643  0.40652946  0.12198493    -0.11300
C2134       C  0.23622553  0.40835691  0.11711180    -0.25300
C2135       C  0.24282126  0.42201671  0.11816362     0.37300
C2136       C  0.23527298  0.43366200  0.12414395    -0.26900
F2137       F  0.20071766  0.41605949  0.13265804    -0.19100
H2138       H  0.21683849  0.39601575  0.12132352     0.16600
F2139       F  0.25673073  0.42394286  0.11394679    -0.22800
H2140       H  0.24056765  0.44409274  0.12503536     0.18400
C2141       C  0.23886467  0.43847100  0.04330952    -0.26800
C2142       C  0.24899228  0.43918776  0.05464731     0.06800
C2143       C  0.25869763  0.45099043  0.05498977     0.26400
C2144       C  0.25833709  0.46158188  0.04415703    -0.11300
C2145       C  0.24807786  0.46089822  0.03298677    -0.25300
C2146       C  0.23824997  0.44929099  0.03273698     0.37200
C2147       C  0.24940500  0.42759901  0.06593021     0.06800
F2148       F  0.26828527  0.45255400  0.06598789    -0.19000
H2149       H  0.26596550  0.47048040  0.04457584     0.16600
F2150       F  0.22802000  0.44845261  0.02225438    -0.22800
H2151       H  0.23143953  0.42943877  0.04253027     0.18400
C2152       C  0.23657201  0.42190758  0.07191537     0.26400
C2153       C  0.23713851  0.41097167  0.08236997    -0.11300
C2154       C  0.25043111  0.40560291  0.08724597    -0.25300
C2155       C  0.26324028  0.41129308  0.08143350     0.37300
C2156       C  0.26271282  0.42204332  0.07077809    -0.26900
F2157       F  0.22346416  0.42718808  0.06802593    -0.19100
H2158       H  0.22716982  0.40676266  0.08683167     0.16600
F2159       F  0.27625941  0.40681178  0.08644517    -0.22800
H2160       H  0.27276973  0.42599422  0.06629363     0.18400
C2161       C  0.26552836  0.62916817  0.93163150    -0.26800
C2162       C  0.27918999  0.63557227  0.93001012     0.06800
C2163       C  0.28580249  0.63561061  0.91635934     0.26400
C2164       C  0.27883053  0.62929865  0.90452626    -0.11300
C2165       C  0.26526079  0.62267747  0.90614294    -0.25300
C2166       C  0.25858675  0.62274125  0.91980541     0.37200
C2167       C  0.28642545  0.64243398  0.94249847     0.06800
F2168       F  0.29884726  0.64205970  0.91442445    -0.19000
H2169       H  0.28407808  0.62949423  0.89406469     0.16600
F2170       F  0.24520040  0.61703486  0.92164027    -0.22800
H2171       H  0.26024734  0.62917360  0.94207755     0.18400
C2172       C  0.28030225  0.65453525  0.94928203     0.26400
C2173       C  0.28748497  0.66129267  0.96073612    -0.11300
C2174       C  0.30086919  0.65605635  0.96572936    -0.25300
C2175       C  0.30682940  0.64370874  0.95905541     0.37300
C2176       C  0.29968233  0.63706353  0.94748299    -0.26900
F2177       F  0.26758589  0.66008074  0.94453356    -0.19100
H2178       H  0.28258676  0.67075155  0.96559740     0.16600
F2179       F  0.31960100  0.63809849  0.96355731    -0.22800
H2180       H  0.30449138  0.62768005  0.94238206     0.18400
C2181       C  0.21910232  0.57771270  0.86024816    -0.26800
C2182       C  0.22554001  0.56398167  0.86127939     0.06800
C2183       C  0.23914692  0.56275433  0.86797832     0.26400
C2184       C  0.24597916  0.57502496  0.87371273    -0.11300
C2185       C  0.23941431  0.58868969  0.87279506    -0.25300
C2186       C  0.22595681  0.58995420  0.86590813     0.37200
C2187       C  0.21796152  0.55114294  0.85521085     0.06800
F2188       F  0.24569419  0.54967895  0.86924735    -0.19000
H2189       H  0.25643631  0.57387399  0.87883604     0.16600
F2190       F  0.21927344  0.60298927  0.86495054    -0.22800
H2191       H  0.20874534  0.57897565  0.85494972     0.18400
C2192       C  0.20335834  0.54849397  0.85850868     0.26400
C2193       C  0.19594890  0.53704823  0.85193033    -0.11300
C2194       C  0.20289095  0.52803657  0.84187289    -0.25300
C2195       C  0.21765551  0.53035079  0.83897063     0.37300
C2196       C  0.22507808  0.54180848  0.84558044    -0.26900
F2197       F  0.19624252  0.55697674  0.86813119    -0.19100
H2198       H  0.18464617  0.53543531  0.85449151     0.16600
F2199       F  0.22495877  0.52150852  0.82982612    -0.22800
H2200       H  0.23632083  0.54360898  0.84288637     0.18400
C2201       C  0.26299009  0.57736379  0.92211005    -0.26800
C2202       C  0.24980780  0.57043858  0.92522303     0.06800
C2203       C  0.23739507  0.57449489  0.91740168     0.26400
C2204       C  0.23820270  0.58532270  0.90689352    -0.11300
C2205       C  0.25141967  0.59202511  0.90363998    -0.25300
C2206       C  0.26386487  0.58785184  0.91125457     0.37200
C2207       C  0.24910347  0.55894610  0.93647436     0.06800
F2208       F  0.22455860  0.56771761  0.91958123    -0.19000
H2209       H  0.22849847  0.58841042  0.90114198     0.16600
F2210       F  0.27692453  0.59364946  0.90795821    -0.22800
H2211       H  0.27267928  0.57462330  0.92805973     0.18400
C2212       C  0.25974216  0.54807481  0.93726975     0.26400
C2213       C  0.25890731  0.53730491  0.94784300    -0.11300
C2214       C  0.24735184  0.53697133  0.95763179    -0.25300
C2215       C  0.23672292  0.54778120  0.95689850     0.37300
C2216       C  0.23768622  0.55872880  0.94650551    -0.26900
F2217       F  0.27075259  0.54759549  0.92760459    -0.19100
H2218       H  0.26722992  0.52908942  0.94833197     0.16600
F2219       F  0.22542954  0.54772950  0.96625010    -0.22800
H2220       H  0.22951938  0.56710417  0.94636256     0.18400
C2221       C  0.27720996  0.35811300  0.92040790    -0.26800
C2222       C  0.28637305  0.36560950  0.92993737     0.06800
C2223       C  0.28960865  0.38025385  0.92711446     0.26400
C2224       C  0.28409539  0.38704289  0.91477525    -0.11300
C2225       C  0.27515243  0.37941517  0.90516740    -0.25300
C2226       C  0.27155947  0.36495552  0.90821288     0.37200
C2227       C  0.29290154  0.35789326  0.94240651     0.06800
F2228       F  0.29805803  0.38801096  0.93628834    -0.19000
H2229       H  0.28706988  0.39817078  0.91258224     0.16600
F2230       F  0.26250693  0.35745002  0.89941252    -0.22800
H2231       H  0.27465026  0.34681307  0.92222293     0.18400
C2232       C  0.28451346  0.34877383  0.95126176     0.26400
C2233       C  0.29095068  0.34098076  0.96247590    -0.11300
C2234       C  0.30580567  0.34227112  0.96525376    -0.25300
C2235       C  0.31418952  0.35150191  0.95650575     0.37300
C2236       C  0.30778169  0.35913284  0.94514952    -0.26900
F2237       F  0.27004100  0.34755266  0.94924265    -0.19100
H2238       H  0.28424350  0.33403764  0.96911858     0.16600
F2239       F  0.32864855  0.35281795  0.95859254    -0.22800
H2240       H  0.31454400  0.36579389  0.93828360     0.18400
C2241       C  0.22820554  0.42591449  0.87081106    -0.26800
C2242       C  0.23280474  0.43423008  0.85897497     0.06800
C2243       C  0.24670428  0.43191917  0.85324243     0.26400
C2244       C  0.25563498  0.42121404  0.85907568    -0.11300
C2245       C  0.25095525  0.41289332  0.87084116    -0.25300
C2246       C  0.23716918  0.41529318  0.87668238     0.37200
C2247       C  0.22295985  0.44511988  0.85260112     0.06800
F2248       F  0.25172142  0.44014453  0.84216131    -0.19000
H2249       H  0.26624592  0.41945734  0.85447660     0.16600
F2250       F  0.23210918  0.40691528  0.88762209    -0.22800
H2251       H  0.21750173  0.42741266  0.87528282     0.18400
C2252       C  0.22017324  0.44525584  0.83766307     0.26400
C2253       C  0.21118907  0.45581078  0.83172094    -0.11300
C2254       C  0.20453517  0.46618648  0.84056962    -0.25300
C2255       C  0.20688109  0.46576451  0.85557228     0.37300
C2256       C  0.21608961  0.45533520  0.86150742    -0.26900
F2257       F  0.22587358  0.43499596  0.82885198    -0.19100
H2258       H  0.20929764  0.45579065  0.82016125     0.16600
F2259       F  0.20074963  0.47574689  0.86440288    -0.22800
H2260       H  0.21805526  0.45537148  0.87305197     0.18400
C2261       C  0.26617572  0.43345675  0.91227504    -0.26800
C2262       C  0.25746859  0.43007307  0.92421278     0.06800
C2263       C  0.25077606  0.41642155  0.92498877     0.26400
C2264       C  0.25291340  0.40626672  0.91398579    -0.11300
C2265       C  0.26149702  0.40973441  0.90199106    -0.25300
C2266       C  0.26809826  0.42340366  0.90117797     0.37200
C2267       C  0.25537286  0.44088453  0.93575440     0.06800
F2268       F  0.24239581  0.41286800  0.93649183    -0.19000
H2269       H  0.24779379  0.39574104  0.91469836     0.16600
F2270       F  0.27662351  0.42686322  0.88975966    -0.22800
H2271       H  0.27137464  0.44394799  0.91151538     0.18400
C2272       C  0.26723669  0.44621459  0.94360932     0.26400
C2273       C  0.26519341  0.45670740  0.95427932    -0.11300
C2274       C  0.25129447  0.46188008  0.95736504    -0.25300
C2275       C  0.23942781  0.45656435  0.94950743     0.37300
C2276       C  0.24148126  0.44612768  0.93876807    -0.26900
F2277       F  0.28073309  0.44106695  0.94112808    -0.19100
H2278       H  0.27442668  0.46074229  0.96025569     0.16600
F2279       F  0.22593016  0.46164936  0.95210014    -0.22800
H2280       H  0.23226329  0.44223061  0.93267916     0.18400
C2281       C  0.65288382  0.27646642  0.04785354    -0.26800
C2282       C  0.64068660  0.28321623  0.05374529     0.06800
C2283       C  0.63626454  0.29666912  0.04824646     0.26400
C2284       C  0.64392514  0.30319457  0.03695505    -0.11300
C2285       C  0.65620896  0.29649048  0.03101789    -0.25300
C2286       C  0.66063097  0.28300369  0.03665465     0.37200
C2287       C  0.63288677  0.27628153  0.06585263     0.06800
F2288       F  0.62440213  0.30337784  0.05364599    -0.19000
H2289       H  0.64021981  0.31353344  0.03287829     0.16600
F2290       F  0.67248573  0.27610998  0.03148293    -0.22800
H2291       H  0.65654395  0.26617303  0.05210192     0.18400
C2292       C  0.62750234  0.26209304  0.06454506     0.26400
C2293       C  0.62074169  0.25540283  0.07628970    -0.11300
C2294       C  0.61942566  0.26269612  0.08951634    -0.25300
C2295       C  0.62469220  0.27690710  0.09080418     0.37300
C2296       C  0.63128019  0.28367282  0.07900866    -0.26900
F2297       F  0.62876786  0.25474136  0.05190552    -0.19100
H2298       H  0.61681805  0.24440312  0.07516555     0.16600
F2299       F  0.62333854  0.28426454  0.10343194    -0.22800
H2300       H  0.63542403  0.29458219  0.08022473     0.18400
C2301       C  0.56099731  0.23301076  0.12711614    -0.26800
C2302       C  0.56240533  0.21839169  0.13103135     0.06800
C2303       C  0.57589224  0.21156358  0.12956510     0.26400
C2304       C  0.58783531  0.21938177  0.12460454    -0.11300
C2305       C  0.58639748  0.23396769  0.12072344    -0.25300
C2306       C  0.57288804  0.24074076  0.12188559     0.37200
C2307       C  0.54993270  0.21041586  0.13706328     0.06800
F2308       F  0.57758861  0.19745586  0.13330577    -0.19000
H2309       H  0.59820272  0.21404225  0.12368492     0.16600
F2310       F  0.57130624  0.25490151  0.11829494    -0.22800
H2311       H  0.55067427  0.23841692  0.12812564     0.18400
C2312       C  0.54294678  0.21540643  0.14956818     0.26400
C2313       C  0.53172349  0.20735373  0.15570705    -0.11300
C2314       C  0.52719271  0.19420171  0.14946624    -0.25300
C2315       C  0.53396679  0.18946801  0.13665894     0.37300
C2316       C  0.54526457  0.19749524  0.13060396    -0.26900
F2317       F  0.54735498  0.22778519  0.15616182    -0.19100
H2318       H  0.52674072  0.21133774  0.16551552     0.16600
F2319       F  0.52988939  0.17698998  0.13005997    -0.22800
H2320       H  0.55045684  0.19357922  0.12087171     0.18400
C2321       C  0.57385641  0.25908275  0.07343050    -0.26800
C2322       C  0.56819891  0.24557725  0.06927681     0.06800
C2323       C  0.57353265  0.23295317  0.07591077     0.26400
C2324       C  0.58425775  0.23390874  0.08649460    -0.11300
C2325       C  0.58973286  0.24741887  0.09078135    -0.25300
C2326       C  0.58445754  0.26002810  0.08415020     0.37200
C2327       C  0.55672315  0.24474996  0.05810829     0.06800
F2328       F  0.56807258  0.21973664  0.07249466    -0.19000
H2329       H  0.58823100  0.22409125  0.09149134     0.16600
F2330       F  0.58921437  0.27326885  0.08837295    -0.22800
H2331       H  0.57001483  0.26893580  0.06838983     0.18400
C2332       C  0.54440849  0.25363429  0.05893049     0.26400
C2333       C  0.53368451  0.25276985  0.04832749    -0.11300
C2334       C  0.53490988  0.24287522  0.03688289    -0.25300
C2335       C  0.54722990  0.23404659  0.03600295     0.37300
C2336       C  0.55804585  0.23503398  0.04650011    -0.26900
F2337       F  0.54253703  0.26285213  0.07019924    -0.19100
H2338       H  0.52428552  0.25968990  0.04913589     0.16600
F2339       F  0.54869558  0.22434303  0.02508086    -0.22800
H2340       H  0.56750763  0.22822420  0.04553544     0.18400
C2341       C  0.37152697  0.27412149  0.07125613    -0.26800
C2342       C  0.36104678  0.26865422  0.06169396     0.06800
C2343       C  0.35659498  0.25412720  0.06302649     0.26400
C2344       C  0.36171951  0.24562484  0.07437062    -0.11300
C2345       C  0.37177887  0.25127508  0.08413958    -0.25300
C2346       C  0.37696612  0.26543660  0.08236006     0.37200
C2347       C  0.35451639  0.27819015  0.05062629     0.06800
F2348       F  0.34738052  0.24812676  0.05329656    -0.19000
H2349       H  0.35790405  0.23458678  0.07551132     0.16600
F2350       F  0.38686477  0.27099341  0.09167430    -0.22800
H2351       H  0.37520239  0.28522626  0.07036197     0.18400
C2352       C  0.33943284  0.27869272  0.04883176     0.26400
C2353       C  0.33336183  0.28719720  0.03796896    -0.11300
C2354       C  0.34214857  0.29567158  0.02896103    -0.25300
C2355       C  0.35719768  0.29566977  0.03113382     0.37300
C2356       C  0.36330532  0.28692307  0.04184036    -0.26900
F2357       F  0.33052510  0.27119135  0.05777541    -0.19100
H2358       H  0.32172790  0.28729188  0.03671416     0.16600
F2359       F  0.36604622  0.30371549  0.02261589    -0.22800
H2360       H  0.37493682  0.28676197  0.04309357     0.18400
C2361       C  0.42249375  0.20594504  0.11520180    -0.26800
C2362       C  0.42732377  0.20969648  0.12908922     0.06800
C2363       C  0.41942744  0.21980244  0.13725537     0.26400
C2364       C  0.40713192  0.22628576  0.13141640    -0.11300
C2365       C  0.40255554  0.22279012  0.11740289    -0.25300
C2366       C  0.41010083  0.21228551  0.10945510     0.37200
C2367       C  0.44045167  0.20288111  0.13507656     0.06800
F2368       F  0.42346448  0.22322169  0.15094692    -0.19000
H2369       H  0.40129324  0.23421318  0.13775261     0.16600
F2370       F  0.40532613  0.20790098  0.09629412    -0.22800
H2371       H  0.42835814  0.19811262  0.10877769     0.18400
C2372       C  0.44207015  0.18774756  0.13492747     0.26400
C2373       C  0.45428144  0.18138751  0.14106123    -0.11300
C2374       C  0.46493585  0.18997736  0.14762100    -0.25300
C2375       C  0.46351644  0.20512632  0.14746111     0.37300
C2376       C  0.45138533  0.21150581  0.14115650    -0.26900
F2377       F  0.43155459  0.17908154  0.12943785    -0.19100
H2378       H  0.45513459  0.16968997  0.14120180     0.16600
F2379       F  0.47389643  0.21374323  0.15327695    -0.22800
H2380       H  0.45047783  0.22319890  0.14108093     0.18400
C2381       C  0.44547168  0.25031439  0.05539778    -0.26800
C2382       C  0.43724904  0.23773312  0.05791357     0.06800
C2383       C  0.44061614  0.22504513  0.05013517     0.26400
C2384       C  0.45167999  0.22511848  0.03986669    -0.11300
C2385       C  0.45974778  0.23770307  0.03734751    -0.25300
C2386       C  0.45670772  0.25028349  0.04528111     0.37200
C2387       C  0.42496314  0.23797404  0.06828585     0.06800
F2388       F  0.43337670  0.21249323  0.05260624    -0.19000
H2389       H  0.45402610  0.21531632  0.03388691     0.16600
F2390       F  0.46442462  0.26258327  0.04301416    -0.22800
H2391       H  0.44301119  0.26027183  0.06105284     0.18400
C2392       C  0.42633669  0.24433039  0.08208304     0.26400
C2393       C  0.41468874  0.24419437  0.09172560    -0.11300
C2394       C  0.40153918  0.23774725  0.08780384    -0.25300
C2395       C  0.40009887  0.23150809  0.07406012     0.37300
C2396       C  0.41165747  0.23172344  0.06437718    -0.26900
F2397       F  0.43904007  0.25025397  0.08643549    -0.19100
H2398       H  0.41593845  0.24894435  0.10235545     0.16600
F2399       F  0.38771102  0.22461152  0.07028725    -0.22800
H2400       H  0.41020143  0.22693675  0.05379114     0.18400
C2401       C  0.64309524  0.27468030  0.95818397    -0.26800
C2402       C  0.63831278  0.28280588  0.94626808     0.06800
C2403       C  0.64094610  0.29782676  0.94598066     0.26400
C2404       C  0.64834544  0.30448057  0.95733623    -0.11300
C2405       C  0.65352965  0.29625434  0.96895739    -0.25300
C2406       C  0.65078877  0.28130227  0.96937924     0.37200
C2407       C  0.63101090  0.27553590  0.93399366     0.06800
F2408       F  0.63696875  0.30597174  0.93443307    -0.19000
H2409       H  0.65053334  0.31599743  0.95677968     0.16600
F2410       F  0.65540447  0.27315067  0.98068059    -0.22800
H2411       H  0.64095219  0.26316217  0.95876854     0.18400
C2412       C  0.63698983  0.26304690  0.92765678     0.26400
C2413       C  0.63043887  0.25673872  0.91559291    -0.11300
C2414       C  0.61783504  0.26270990  0.90972775    -0.25300
C2415       C  0.61181414  0.27512857  0.91603814     0.37300
C2416       C  0.61828953  0.28139429  0.92815380    -0.26900
F2417       F  0.64948093  0.25729289  0.93273955    -0.19100
H2418       H  0.63530159  0.24727589  0.91069210     0.16600
F2419       F  0.60016147  0.28167079  0.91003101    -0.22800
H2420       H  0.61347618  0.29097867  0.93285534     0.18400
C2421       C  0.56835353  0.23790484  0.85273517    -0.26800
C2422       C  0.56074135  0.22671109  0.85964103     0.06800
C2423       C  0.56408500  0.22336955  0.87409777     0.26400
C2424       C  0.57537838  0.23051202  0.88116147    -0.11300
C2425       C  0.58330896  0.24138662  0.87410836    -0.25300
C2426       C  0.57945655  0.24524329  0.85990159     0.37200
C2427       C  0.55002462  0.21798135  0.85146570     0.06800
F2428       F  0.55657709  0.21302049  0.88133415    -0.19000
H2429       H  0.57826140  0.22699444  0.89190309     0.16600
F2430       F  0.58660638  0.25595749  0.85283136    -0.22800
H2431       H  0.56604422  0.24065510  0.84159199     0.18400
C2432       C  0.53939364  0.22462505  0.84287184     0.26400
C2433       C  0.52962463  0.21617799  0.83499794    -0.11300
C2434       C  0.53014372  0.20098155  0.83566165    -0.25300
C2435       C  0.54083722  0.19433457  0.84415679     0.37300
C2436       C  0.55071013  0.20278019  0.85189396    -0.26900
F2437       F  0.53819734  0.23926441  0.84236830    -0.19100
H2438       H  0.52141629  0.22155112  0.82861247     0.16600
F2439       F  0.54198792  0.17969535  0.84472219    -0.22800
H2440       H  0.55904787  0.19741209  0.85810911     0.18400
C2441       C  0.57796590  0.23728515  0.92680739    -0.26800
C2442       C  0.56649908  0.24721485  0.92828416     0.06800
C2443       C  0.56611718  0.25925694  0.91882375     0.26400
C2444       C  0.57614189  0.26051978  0.90757577    -0.11300
C2445       C  0.58739065  0.25054076  0.90623672    -0.25300
C2446       C  0.58854229  0.23920225  0.91621177     0.37200
C2447       C  0.55526493  0.24495222  0.93974269     0.06800
F2448       F  0.55651900  0.27016882  0.92073144    -0.19000
H2449       H  0.57543630  0.26955203  0.90014729     0.16600
F2450       F  0.59963734  0.22966944  0.91528215    -0.22800
H2451       H  0.57873710  0.22787983  0.93373243     0.18400
C2452       C  0.54065580  0.24868920  0.93747484     0.26400
C2453       C  0.53053854  0.24716264  0.94858604    -0.11300
C2454       C  0.53430752  0.24064989  0.96178916    -0.25300
C2455       C  0.54861687  0.23590637  0.96369100     0.37300
C2456       C  0.55901962  0.23851175  0.95304136    -0.26900
F2457       F  0.53587920  0.25319264  0.92436014    -0.19100
H2458       H  0.51957821  0.25078845  0.94671400     0.16600
F2459       F  0.55256806  0.22871061  0.97586055    -0.22800
H2460       H  0.57005277  0.23539590  0.95528660     0.18400
C2461       C  0.36978005  0.28182160  0.91953642    -0.26800
C2462       C  0.36684290  0.27417557  0.93231042     0.06800
C2463       C  0.37016775  0.25934764  0.93309368     0.26400
C2464       C  0.37640388  0.25233296  0.92125560    -0.11300
C2465       C  0.37915074  0.25995090  0.90843166    -0.25300
C2466       C  0.37578077  0.27475372  0.90762790     0.37200
C2467       C  0.35982948  0.28162600  0.94455625     0.06800
F2468       F  0.36745422  0.25170472  0.94533152    -0.19000
H2469       H  0.37886048  0.24089405  0.92199615     0.16600
F2470       F  0.37851041  0.28240831  0.89540050    -0.22800
H2471       H  0.36717609  0.29322408  0.91871618     0.18400
C2472       C  0.36599968  0.29409011  0.95070476     0.26400
C2473       C  0.35892374  0.30135611  0.96189989    -0.11300
C2474       C  0.34551919  0.29638634  0.96707894    -0.25300
C2475       C  0.33947694  0.28374109  0.96097556     0.37300
C2476       C  0.34661311  0.27647538  0.94985299    -0.26900
F2477       F  0.37891575  0.29916558  0.94594189    -0.19100
H2478       H  0.36388411  0.31098669  0.96638836     0.16600
F2479       F  0.32657660  0.27844273  0.96554095    -0.22800
H2480       H  0.34165846  0.26694167  0.94514213     0.18400
C2481       C  0.42137626  0.21201187  0.86137519    -0.26800
C2482       C  0.43550115  0.21704304  0.86379783     0.06800
C2483       C  0.43761949  0.22901368  0.87298974     0.26400
C2484       C  0.42576648  0.23598936  0.87926447    -0.11300
C2485       C  0.41164299  0.23110637  0.87655695    -0.25300
C2486       C  0.40956217  0.21894043  0.86769160     0.37200
C2487       C  0.44777217  0.21017657  0.85608260     0.06800
F2488       F  0.45112442  0.23399180  0.87586009    -0.19000
H2489       H  0.42761651  0.24546322  0.88591042     0.16600
F2490       F  0.39607219  0.21378447  0.86508740    -0.22800
H2491       H  0.41944182  0.20291610  0.85423922     0.18400
C2492       C  0.44934703  0.19502393  0.85583139     0.26400
C2493       C  0.46030820  0.18863265  0.84764737    -0.11300
C2494       C  0.46976388  0.19718013  0.83939303    -0.25300
C2495       C  0.46840156  0.21234412  0.83986341     0.37300
C2496       C  0.45752295  0.21874935  0.84817045    -0.26900
F2497       F  0.44027724  0.18638373  0.86349271    -0.19100
H2498       H  0.46118534  0.17693850  0.84748814     0.16600
F2499       F  0.47765285  0.22098126  0.83241209    -0.22800
H2500       H  0.45647011  0.23042735  0.84810237     0.18400
C2501       C  0.42334185  0.25151238  0.92607039    -0.26800
C2502       C  0.42775374  0.23740221  0.92963581     0.06800
C2503       C  0.42141128  0.22558389  0.92241812     0.26400
C2504       C  0.41118999  0.22796017  0.91154336    -0.11300
C2505       C  0.40720002  0.24209332  0.90767933    -0.25300
C2506       C  0.41327618  0.25387113  0.91510586     0.37200
C2507       C  0.43934726  0.23529506  0.94047888     0.06800
F2508       F  0.42553274  0.21181239  0.92542216    -0.19000
H2509       H  0.40656987  0.21879480  0.90587999     0.16600
F2510       F  0.40998745  0.26766238  0.91130067    -0.22800
H2511       H  0.42792819  0.26076955  0.93162052     0.18400
C2512       C  0.45211821  0.24352500  0.93965165     0.26400
C2513       C  0.46255940  0.24244796  0.95044390    -0.11300
C2514       C  0.46068877  0.23289771  0.96208690    -0.25300
C2515       C  0.44825223  0.22413698  0.96260575     0.37300
C2516       C  0.43760773  0.22543639  0.95192927    -0.26900
F2517       F  0.45453080  0.25260122  0.92835958    -0.19100
H2518       H  0.47209719  0.24923249  0.94981422     0.16600
F2519       F  0.44630459  0.21456167  0.97356970    -0.22800
H2520       H  0.42786390  0.21898944  0.95278556     0.18400
C2521       C  0.62541562  0.07703817  0.70177771    -0.26800
C2522       C  0.62656551  0.06408265  0.70961313     0.06800
C2523       C  0.62202042  0.06371482  0.72411936     0.26400
C2524       C  0.61669852  0.07623540  0.73071372    -0.11300
C2525       C  0.61600233  0.08927475  0.72297700    -0.25300
C2526       C  0.62027959  0.08958206  0.70842543     0.37200
C2527       C  0.63390346  0.05152126  0.70302030     0.06800
F2528       F  0.62289088  0.05129450  0.73191826    -0.19000
H2529       H  0.61340823  0.07584645  0.74194246     0.16600
F2530       F  0.61939481  0.10200876  0.70064124    -0.22800
H2531       H  0.62898976  0.07755668  0.69064141     0.18400
C2532       C  0.62939799  0.04579014  0.68968500     0.26400
C2533       C  0.63738257  0.03478579  0.68304238    -0.11300
C2534       C  0.65006807  0.02943885  0.68951034    -0.25300
C2535       C  0.65435395  0.03508427  0.70302217     0.37300
C2536       C  0.64630072  0.04595119  0.70966423    -0.26900
F2537       F  0.61733076  0.05087627  0.68308082    -0.19100
H2538       H  0.63376611  0.03064927  0.67269952     0.16600
F2539       F  0.66647836  0.03036235  0.70977870    -0.22800
H2540       H  0.65003867  0.05038482  0.71984726     0.18400
C2541       C  0.56063788  0.13054917  0.75307278    -0.26800
C2542       C  0.56367725  0.13808153  0.76586533     0.06800
C2543       C  0.57796708  0.13902225  0.77083287     0.26400
C2544       C  0.58908439  0.13240399  0.76308514    -0.11300
C2545       C  0.58608574  0.12477890  0.75030389    -0.25300
C2546       C  0.57177815  0.12408690  0.74520762     0.37200
C2547       C  0.55193045  0.14513746  0.77389804     0.06800
F2548       F  0.58110632  0.14620618  0.78324757    -0.19000
H2549       H  0.60004553  0.13311309  0.76713049     0.16600
F2550       F  0.56862574  0.11759871  0.73242728    -0.22800
H2551       H  0.54966136  0.12993122  0.74905490     0.18400
C2552       C  0.55049918  0.16025699  0.77371787     0.26400
C2553       C  0.53947295  0.16690975  0.78159706    -0.11300
C2554       C  0.52992514  0.15857078  0.78997037    -0.25300
C2555       C  0.53130768  0.14338109  0.78997962     0.37300
C2556       C  0.54218702  0.13674160  0.78189732    -0.26900
F2557       F  0.55978016  0.16854005  0.76591752    -0.19100
H2558       H  0.53861442  0.17860436  0.78144026     0.16600
F2559       F  0.52203157  0.13494528  0.79762635    -0.22800
H2560       H  0.54315235  0.12505184  0.78202339     0.18400
C2561       C  0.57170059  0.07455213  0.72856123    -0.26800
C2562       C  0.56538535  0.07192009  0.74215635     0.06800
C2563       C  0.57007130  0.08029106  0.75405083     0.26400
C2564       C  0.58100498  0.09062356  0.75233809    -0.11300
C2565       C  0.58702871  0.09334250  0.73868935    -0.25300
C2566       C  0.58200578  0.08542921  0.72674024     0.37200
C2567       C  0.55414626  0.06038256  0.74371961     0.06800
F2568       F  0.56390297  0.07882280  0.76727191    -0.19000
H2569       H  0.58468293  0.09666027  0.76167483     0.16600
F2570       F  0.58682062  0.08842030  0.71321960    -0.22800
H2571       H  0.56872280  0.06816497  0.71921961     0.18400
C2572       C  0.54400722  0.05775051  0.73261868     0.26400
C2573       C  0.53444160  0.04609427  0.73357764    -0.11300
C2574       C  0.53384901  0.03751734  0.74608206    -0.25300
C2575       C  0.54334554  0.04058144  0.75753206     0.37300
C2576       C  0.55370263  0.05154811  0.75613727    -0.26900
F2577       F  0.54296933  0.06666591  0.72099867    -0.19100
H2578       H  0.52703441  0.04406951  0.72473038     0.16600
F2579       F  0.54270582  0.03284799  0.76999445    -0.22800
H2580       H  0.56144958  0.05297764  0.76477714     0.18400
C2581       C  0.35837401  0.07338728  0.72246624    -0.26800
C2582       C  0.36717274  0.06625311  0.71232945     0.06800
C2583       C  0.38100867  0.07186501  0.70941626     0.26400
C2584       C  0.38608935  0.08394073  0.71699065    -0.11300
C2585       C  0.37752957  0.09059239  0.72759984    -0.25300
C2586       C  0.36349186  0.08541076  0.73007447     0.37200
C2587       C  0.36190712  0.05281433  0.70522493     0.06800
F2588       F  0.38983819  0.06538797  0.69967064    -0.19000
H2589       H  0.39681300  0.08801313  0.71466426     0.16600
F2590       F  0.35494467  0.09157958  0.74026735    -0.22800
H2591       H  0.34754134  0.06951907  0.72464097     0.18400
C2592       C  0.35518497  0.04189790  0.71344447     0.26400
C2593       C  0.34917046  0.02981816  0.70666973    -0.11300
C2594       C  0.34999257  0.02815586  0.69161244    -0.25300
C2595       C  0.35741252  0.03863711  0.68342816     0.37300
C2596       C  0.36318547  0.05092638  0.69019198    -0.26900
F2597       F  0.35440175  0.04290111  0.72806476    -0.19100
H2598       H  0.34367999  0.02179844  0.71322623     0.16600
F2599       F  0.35836462  0.03745330  0.66883515    -0.22800
H2600       H  0.36822172  0.05920168  0.68359929     0.18400
C2601       C  0.42711660  0.12253925  0.77668655    -0.26800
C2602       C  0.43572977  0.13304165  0.76982433     0.06800
C2603       C  0.43264664  0.13687211  0.75542092     0.26400
C2604       C  0.42048978  0.13122794  0.74849025    -0.11300
C2605       C  0.41150314  0.12135893  0.75562069    -0.25300
C2606       C  0.41509734  0.11664808  0.76959119     0.37200
C2607       C  0.44720953  0.14073517  0.77797454     0.06800
F2608       F  0.44133518  0.14618044  0.74810229    -0.19000
H2609       H  0.41802488  0.13460361  0.73754839     0.16600
F2610       F  0.40668632  0.10680603  0.77653041    -0.22800
H2611       H  0.42937743  0.11932346  0.78771694     0.18400
C2612       C  0.44753060  0.15596331  0.77819959     0.26400
C2613       C  0.45834689  0.16329701  0.78574411    -0.11300
C2614       C  0.46888839  0.15565173  0.79350407    -0.25300
C2615       C  0.46842232  0.14040096  0.79357462     0.37300
C2616       C  0.45766049  0.13302897  0.78583855    -0.26900
F2617       F  0.43711478  0.16378460  0.77145170    -0.19100
H2618       H  0.45832284  0.17502714  0.78572045     0.16600
F2619       F  0.47856923  0.13262277  0.80076508    -0.22800
H2620       H  0.45757538  0.12130001  0.78584495     0.18400
C2621       C  0.44325216  0.05060002  0.73330975    -0.26800
C2622       C  0.43806034  0.05732621  0.74585056     0.06800
C2623       C  0.44303788  0.05275610  0.75946056     0.26400
C2624       C  0.45326419  0.04169119  0.76045166    -0.11300
C2625       C  0.45845844  0.03501442  0.74789402    -0.25300
C2626       C  0.45334674  0.03944581  0.73431124     0.37200
C2627       C  0.42741565  0.06907803  0.74466607     0.06800
F2628       F  0.43830491  0.05928732  0.77171395    -0.19000
H2629       H  0.45729046  0.03844246  0.77095596     0.16600
F2630       F  0.45835716  0.03313783  0.72205114    -0.22800
H2631       H  0.43944594  0.05399155  0.72276529     0.18400
C2632       C  0.43096548  0.08209531  0.73764268     0.26400
C2633       C  0.42082632  0.09323892  0.73679825    -0.11300
C2634       C  0.40703110  0.09143708  0.74277563    -0.25300
C2635       C  0.40341952  0.07834653  0.74958554     0.37300
C2636       C  0.41359895  0.06726985  0.75059352    -0.26900
F2637       F  0.44430910  0.08411022  0.73190201    -0.19100
H2638       H  0.42366731  0.10327912  0.73145940     0.16600
F2639       F  0.39014898  0.07644768  0.75550451    -0.22800
H2640       H  0.41071677  0.05724958  0.75596416     0.18400
C2641       C  0.62795882  0.93562066  0.72873193    -0.26800
C2642       C  0.63270482  0.93337685  0.71447944     0.06800
C2643       C  0.63086751  0.91964292  0.70816147     0.26400
C2644       C  0.62458432  0.90835799  0.71606644    -0.11300
C2645       C  0.61982356  0.91061823  0.73028119    -0.25300
C2646       C  0.62149562  0.92436428  0.73657065     0.37200
C2647       C  0.64007316  0.94520742  0.70649393     0.06800
F2648       F  0.63567591  0.91698388  0.69456154    -0.19000
H2649       H  0.62357091  0.89775921  0.71114669     0.16600
F2650       F  0.61756051  0.92670540  0.75050103    -0.22800
H2651       H  0.62938670  0.94608807  0.73382370     0.18400
C2652       C  0.63491586  0.94996738  0.69302580     0.26400
C2653       C  0.64206813  0.96105551  0.68557386    -0.11300
C2654       C  0.65455495  0.96760722  0.69134522    -0.25300
C2655       C  0.65969950  0.96276265  0.70486854     0.37300
C2656       C  0.65245562  0.95174792  0.71234645    -0.26900
F2657       F  0.62278459  0.94409094  0.68720897    -0.19100
H2658       H  0.63776928  0.96452500  0.67525317     0.16600
F2659       F  0.67174625  0.96857707  0.71090991    -0.22800
H2660       H  0.65663737  0.94816585  0.72268318     0.18400
C2661       C  0.57769927  0.86614537  0.78041730    -0.26800
C2662       C  0.56454256  0.86431558  0.77305548     0.06800
C2663       C  0.56322629  0.86965730  0.75886229     0.26400
C2664       C  0.57495007  0.87657380  0.75220182    -0.11300
C2665       C  0.58815449  0.87810979  0.75951964    -0.25300
C2666       C  0.58943864  0.87286405  0.77369359     0.37200
C2667       C  0.55236712  0.85692761  0.78046317     0.06800
F2668       F  0.55060131  0.86833204  0.75151233    -0.19000
H2669       H  0.57383308  0.88042753  0.74120092     0.16600
F2670       F  0.60203762  0.87432664  0.78106352    -0.22800
H2671       H  0.57894917  0.86213107  0.79134953     0.18400
C2672       C  0.54552932  0.84474714  0.77438477     0.26400
C2673       C  0.53484974  0.83728711  0.78214438    -0.11300
C2674       C  0.53074546  0.84184472  0.79607305    -0.25300
C2675       C  0.53745252  0.85423813  0.80197159     0.37300
C2676       C  0.54814028  0.86160501  0.79424483    -0.26900
F2677       F  0.54957128  0.83970348  0.76121490    -0.19100
H2678       H  0.52989465  0.82783716  0.77728244     0.16600
F2679       F  0.53397005  0.85913691  0.81535161    -0.22800
H2680       H  0.55325970  0.87097031  0.79911336     0.18400
C2681       C  0.57485588  0.92526370  0.75769513    -0.26800
C2682       C  0.56743328  0.92836925  0.74479227     0.06800
C2683       C  0.57138675  0.92098947  0.73206012     0.26400
C2684       C  0.58271485  0.91099426  0.73223834    -0.11300
C2685       C  0.59002895  0.90795388  0.74512529    -0.25300
C2686       C  0.58597032  0.91503669  0.75789407     0.37200
C2687       C  0.55594187  0.93959399  0.74458677     0.06800
F2688       F  0.56407973  0.92318487  0.71953019    -0.19000
H2689       H  0.58564281  0.90537821  0.72239560     0.16600
F2690       F  0.59301965  0.91225845  0.77045284    -0.22800
H2691       H  0.57219985  0.93092773  0.76758881     0.18400
C2692       C  0.54506322  0.93989699  0.75522373     0.26400
C2693       C  0.53459801  0.95080036  0.75507736    -0.11300
C2694       C  0.53474401  0.96154587  0.74434676    -0.25300
C2695       C  0.54542667  0.96113110  0.73358391     0.37300
C2696       C  0.55597877  0.95032438  0.73379568    -0.26900
F2697       F  0.54438629  0.92953112  0.76560863    -0.19100
H2698       H  0.52634204  0.95090010  0.76337109     0.16600
F2699       F  0.54568683  0.97123745  0.72293566    -0.22800
H2700       H  0.56432580  0.95045852  0.72560207     0.18400
C2701       C  0.36842616  0.91487146  0.70650496    -0.26800
C2702       C  0.36766161  0.92837223  0.71342496     0.06800
C2703       C  0.37303449  0.92981787  0.72755407     0.26400
C2704       C  0.37888775  0.91787159  0.73471401    -0.11300
C2705       C  0.37940671  0.90429773  0.72792542    -0.25300
C2706       C  0.37416330  0.90286781  0.71373000     0.37200
C2707       C  0.36062095  0.94076023  0.70619320     0.06800
F2708       F  0.37259393  0.94280300  0.73440835    -0.19000
H2709       H  0.38274457  0.91915585  0.74569417     0.16600
F2710       F  0.37469883  0.88990351  0.70683802    -0.22800
H2711       H  0.36428537  0.91357981  0.69562573     0.18400
C2712       C  0.36618378  0.94656351  0.69332581     0.26400
C2713       C  0.35940065  0.95838716  0.68673422    -0.11300
C2714       C  0.34686770  0.96453924  0.69278257    -0.25300
C2715       C  0.34128360  0.95854157  0.70565307     0.37300
C2716       C  0.34817187  0.94683821  0.71227554    -0.26900
F2717       F  0.37830860  0.94095678  0.68729265    -0.19100
H2718       H  0.36396171  0.96269003  0.67684719     0.16600
F2719       F  0.32908873  0.96382186  0.71182833    -0.22800
H2720       H  0.34368572  0.94237911  0.72213638     0.18400
C2721       C  0.43627169  0.86640786  0.75985565    -0.26800
C2722       C  0.43386820  0.85975374  0.77328739     0.06800
C2723       C  0.41978231  0.85938263  0.77896078     0.26400
C2724       C  0.40833140  0.86549268  0.77123225    -0.11300
C2725       C  0.41075536  0.87219554  0.75783637    -0.25300
C2726       C  0.42482453  0.87253405  0.75214327     0.37200
C2727       C  0.44602324  0.85299167  0.78119091     0.06800
F2728       F  0.41703152  0.85270433  0.79174287    -0.19000
H2729       H  0.39752288  0.86495488  0.77568142     0.16600
F2730       F  0.42741831  0.87816577  0.73885049    -0.22800
H2731       H  0.44703657  0.86676042  0.75528878     0.18400
C2732       C  0.45478445  0.84255167  0.77448609     0.26400
C2733       C  0.46604519  0.83601844  0.78214742    -0.11300
C2734       C  0.46888775  0.83987063  0.79657821    -0.25300
C2735       C  0.46017728  0.85045949  0.80321662     0.37300
C2736       C  0.44884234  0.85688461  0.79557623    -0.26900
F2737       F  0.45221163  0.83839024  0.76064634    -0.19100
H2738       H  0.47255329  0.82792113  0.77675675     0.16600
F2739       F  0.46236074  0.85440631  0.81718222    -0.22800
H2740       H  0.44225528  0.86496997  0.80089346     0.18400
C2741       C  0.45106210  0.93670183  0.75471148    -0.26800
C2742       C  0.43910379  0.93754416  0.74539143     0.06800
C2743       C  0.43751333  0.94986239  0.73656259     0.26400
C2744       C  0.44800303  0.96076884  0.73665864    -0.11300
C2745       C  0.45998620  0.95989040  0.74593411    -0.25300
C2746       C  0.46136920  0.94778897  0.75505874     0.37200
C2747       C  0.42846473  0.92549665  0.74484745     0.06800
F2748       F  0.42564224  0.95153688  0.72810928    -0.19000
H2749       H  0.44668756  0.97004645  0.72961724     0.16600
F2750       F  0.47268891  0.94672954  0.76432760    -0.22800
H2751       H  0.45249943  0.92735764  0.76163790     0.18400
C2752       C  0.42411136  0.91953777  0.73152634     0.26400
C2753       C  0.41404506  0.90827260  0.73111800    -0.11300
C2754       C  0.40830039  0.90258301  0.74393053    -0.25300
C2755       C  0.41277509  0.90830636  0.75726491     0.37300
C2756       C  0.42277905  0.91968043  0.75770163    -0.26900
F2757       F  0.42988139  0.92432085  0.71891325    -0.19100
H2758       H  0.41079365  0.90382228  0.72078500     0.16600
F2759       F  0.40714992  0.90316089  0.76979724    -0.22800
H2760       H  0.42594270  0.92409731  0.76807911     0.18400
C2761       C  0.64976867  0.71549832  0.03997061    -0.26800
C2762       C  0.64134198  0.70814180  0.05025743     0.06800
C2763       C  0.63996484  0.69297991  0.04915163     0.26400
C2764       C  0.64688243  0.68544039  0.03799118    -0.11300
C2765       C  0.65551435  0.69280241  0.02789156    -0.25300
C2766       C  0.65686518  0.70794862  0.02897463     0.37200
C2767       C  0.63411813  0.71636277  0.06206723     0.06800
F2768       F  0.63233510  0.68537735  0.05912524    -0.19000
H2769       H  0.64577866  0.67377364  0.03746001     0.16600
F2770       F  0.66478323  0.71553225  0.01920764    -0.22800
H2771       H  0.65078108  0.72717616  0.04037756     0.18400
C2772       C  0.64173836  0.72682573  0.07010274     0.26400
C2773       C  0.63485398  0.73453482  0.08112163    -0.11300
C2774       C  0.62030029  0.73189947  0.08457912    -0.25300
C2775       C  0.61275183  0.72121718  0.07673999     0.37300
C2776       C  0.61954735  0.71374068  0.06546547    -0.26900
F2777       F  0.65600079  0.72924821  0.06767796    -0.19100
H2778       H  0.64101841  0.74248658  0.08714163     0.16600
F2779       F  0.59911041  0.71735205  0.08041139    -0.22800
H2780       H  0.61342389  0.70574356  0.05947128     0.18400
C2781       C  0.57041935  0.76341272  0.13828319    -0.26800
C2782       C  0.56307985  0.77396909  0.13020713     0.06800
C2783       C  0.56733435  0.77644951  0.11579341     0.26400
C2784       C  0.57883436  0.76869415  0.10975210    -0.11300
C2785       C  0.58623528  0.75821613  0.11788158    -0.25300
C2786       C  0.58185332  0.75561601  0.13222690     0.37200
C2787       C  0.55154330  0.78280548  0.13710756     0.06800
F2788       F  0.56036319  0.78637061  0.10752770    -0.19000
H2789       H  0.58215403  0.77115838  0.09880923     0.16600
F2790       F  0.58861653  0.74549764  0.14042981    -0.22800
H2791       H  0.56751478  0.76142034  0.14944740     0.18400
C2792       C  0.54044594  0.77632419  0.14529618     0.26400
C2793       C  0.53005863  0.78490520  0.15221628    -0.11300
C2794       C  0.53039739  0.80006457  0.15092044    -0.25300
C2795       C  0.54141333  0.80651258  0.14264221     0.37300
C2796       C  0.55189572  0.79796653  0.13592433    -0.26900
F2797       F  0.53946475  0.76169483  0.14636435    -0.19100
H2798       H  0.52159440  0.77967967  0.15840019     0.16600
F2799       F  0.54234021  0.82113031  0.14140399    -0.22800
H2800       H  0.56048570  0.80325302  0.12997465     0.18400
C2801       C  0.55249880  0.75667248  0.04675148    -0.26800
C2802       C  0.55711541  0.74395371  0.05368363     0.06800
C2803       C  0.55085228  0.73062570  0.04975067     0.26400
C2804       C  0.54007331  0.73009777  0.03918394    -0.11300
C2805       C  0.53541570  0.74281123  0.03238028    -0.25300
C2806       C  0.54171883  0.75612129  0.03615553     0.37200
C2807       C  0.56823048  0.74462106  0.06519328     0.06800
F2808       F  0.55536281  0.71809506  0.05593871    -0.19000
H2809       H  0.53537542  0.71976005  0.03623419     0.16600
F2810       F  0.53734479  0.76853816  0.02965400    -0.22800
H2811       H  0.55711554  0.76704559  0.04969822     0.18400
C2812       C  0.58174582  0.75114826  0.06269304     0.26400
C2813       C  0.59223097  0.75133501  0.07359943    -0.11300
C2814       C  0.58935137  0.74512919  0.08714328    -0.25300
C2815       C  0.57580836  0.73875231  0.08968440     0.37300
C2816       C  0.56536153  0.73850362  0.07879142    -0.26900
F2817       F  0.58493612  0.75696163  0.04959922    -0.19100
H2818       H  0.60264012  0.75626983  0.07151384     0.16600
F2819       F  0.57288653  0.73238435  0.10257323    -0.22800
H2820       H  0.55499686  0.73349753  0.08095655     0.18400
C2821       C  0.36315416  0.71719331  0.07727390    -0.26800
C2822       C  0.36282748  0.72325858  0.06335137     0.06800
C2823       C  0.36856229  0.73720647  0.06116432     0.26400
C2824       C  0.37459618  0.74485228  0.07270044    -0.11300
C2825       C  0.37491050  0.73877643  0.08657622    -0.25300
C2826       C  0.36907464  0.72491957  0.08884239     0.37200
C2827       C  0.35608186  0.71521448  0.05126905     0.06800
F2828       F  0.36851988  0.74334913  0.04783402    -0.19000
H2829       H  0.37897346  0.75557501  0.07082573     0.16600
F2830       F  0.36943864  0.71873760  0.10215131    -0.22800
H2831       H  0.35864713  0.70653771  0.07921279     0.18400
C2832       C  0.36008037  0.70087475  0.04812873     0.26400
C2833       C  0.35333834  0.69337004  0.03684490    -0.11300
C2834       C  0.34244212  0.69999496  0.02857555    -0.25300
C2835       C  0.33863533  0.71443663  0.03163721     0.37300
C2836       C  0.34537892  0.72190083  0.04288716    -0.26900
F2837       F  0.37062271  0.69419876  0.05584278    -0.19100
H2838       H  0.35652596  0.68229811  0.03470592     0.16600
F2839       F  0.32847513  0.72144693  0.02371741    -0.22800
H2840       H  0.34208768  0.73291235  0.04518610     0.18400
C2841       C  0.42066845  0.78941824  0.12598825    -0.26800
C2842       C  0.43389479  0.78206909  0.12682175     0.06800
C2843       C  0.43476838  0.76769640  0.12189282     0.26400
C2844       C  0.42249951  0.76076408  0.11641286    -0.11300
C2845       C  0.40920630  0.76801397  0.11594678    -0.25300
C2846       C  0.40836938  0.78242093  0.12069768     0.37200
C2847       C  0.44641001  0.78917757  0.13375978     0.06800
F2848       F  0.44745130  0.76037040  0.12246706    -0.19000
H2849       H  0.42328345  0.74961469  0.11286761     0.16600
F2850       F  0.39565691  0.78970398  0.12020609    -0.22800
H2851       H  0.41979112  0.80045836  0.12984062     0.18400
C2852       C  0.45178075  0.80242170  0.12857861     0.26400
C2853       C  0.46298747  0.80949931  0.13589045    -0.11300
C2854       C  0.46892138  0.80357697  0.14859032    -0.25300
C2855       C  0.46356751  0.79017617  0.15363496     0.37300
C2856       C  0.45248340  0.78307055  0.14621803    -0.26900
F2857       F  0.44619914  0.80847387  0.11642986    -0.19100
H2858       H  0.46687300  0.81973856  0.13170208     0.16600
F2859       F  0.46890955  0.78391756  0.16578474    -0.22800
H2860       H  0.44836034  0.77292367  0.15042409     0.18400
C2861       C  0.41999946  0.73688279  0.07116041    -0.26800
C2862       C  0.42710722  0.74921265  0.06573862     0.06800
C2863       C  0.42310060  0.76293628  0.07110025     0.26400
C2864       C  0.41230225  0.76415116  0.08161511    -0.11300
C2865       C  0.40550140  0.75176530  0.08719460    -0.25300
C2866       C  0.40952671  0.73809733  0.08193976     0.37200
C2867       C  0.43865197  0.74756988  0.05461734     0.06800
F2868       F  0.42988651  0.77514937  0.06654683    -0.19000
H2869       H  0.40932734  0.77477312  0.08555718     0.16600
F2870       F  0.40362853  0.72587029  0.08753890    -0.22800
H2871       H  0.42258086  0.72621085  0.06708530     0.18400
C2872       C  0.44900010  0.73641422  0.05568197     0.26400
C2873       C  0.45941696  0.73459133  0.04490321    -0.11300
C2874       C  0.45999772  0.74402112  0.03304347    -0.25300
C2875       C  0.44995376  0.75537764  0.03210082     0.37300
C2876       C  0.43927909  0.75699148  0.04267559    -0.26900
F2877       F  0.44929781  0.72744832  0.06730376    -0.19100
H2878       H  0.46718041  0.72588251  0.04587017     0.16600
F2879       F  0.45048874  0.76489394  0.02092828    -0.22800
H2880       H  0.43138628  0.76552935  0.04140084     0.18400
C2881       C  0.63639967  0.73475253  0.93224876    -0.26800
C2882       C  0.63382871  0.71977133  0.93338695     0.06800
C2883       C  0.62480178  0.71306599  0.92307096     0.26400
C2884       C  0.61893066  0.72113732  0.91167369    -0.11300
C2885       C  0.62209840  0.73591074  0.91028369    -0.25300
C2886       C  0.63072082  0.74272645  0.92073075     0.37200
C2887       C  0.64111852  0.71118884  0.94491582     0.06800
F2888       F  0.62221390  0.69860594  0.92357947    -0.19000
H2889       H  0.61229522  0.71576200  0.90364783     0.16600
F2890       F  0.63367708  0.75709455  0.91974375    -0.22800
H2891       H  0.64298346  0.74027432  0.94021196     0.18400
C2892       C  0.65596130  0.71306196  0.94769324     0.26400
C2893       C  0.66284333  0.70489654  0.95837458    -0.11300
C2894       C  0.65520794  0.69451319  0.96643914    -0.25300
C2895       C  0.64034702  0.69260565  0.96369089     0.37300
C2896       C  0.63340084  0.70093315  0.95309641    -0.26900
F2897       F  0.66398058  0.72246873  0.93976129    -0.19100
H2898       H  0.67429648  0.70653600  0.96013517     0.16600
F2899       F  0.63244666  0.68289541  0.97137289    -0.22800
H2900       H  0.62192783  0.69943104  0.95136035     0.18400
C2901       C  0.57978516  0.78603285  0.86659573    -0.26800
C2902       C  0.56663064  0.77870264  0.86460562     0.06800
C2903       C  0.56539459  0.76428869  0.86937734     0.26400
C2904       C  0.57720989  0.75729254  0.87568815    -0.11300
C2905       C  0.59043047  0.76453777  0.87747890    -0.25300
C2906       C  0.59159481  0.77903592  0.87293406     0.37200
C2907       C  0.55454719  0.78585530  0.85684500     0.06800
F2908       F  0.55276189  0.75695374  0.86789212    -0.19000
H2909       H  0.57611888  0.74604766  0.87873645     0.16600
F2910       F  0.60414643  0.78646032  0.87463592    -0.22800
H2911       H  0.58102572  0.79709480  0.86290130     0.18400
C2912       C  0.54954049  0.79959906  0.86100580     0.26400
C2913       C  0.53839571  0.80631644  0.85328426    -0.11300
C2914       C  0.53207101  0.79953271  0.84119906    -0.25300
C2915       C  0.53713179  0.78573870  0.83708217     0.37300
C2916       C  0.54821309  0.77902772  0.84485520    -0.26900
F2917       F  0.55527314  0.80644081  0.87266640    -0.19100
H2918       H  0.53477204  0.81690110  0.85675669     0.16600
F2919       F  0.53145033  0.77867062  0.82553551    -0.22800
H2920       H  0.55203508  0.76852267  0.84134230     0.18400
C2921       C  0.57818347  0.75585333  0.92626110    -0.26800
C2922       C  0.56888171  0.74379888  0.92564176     0.06800
C2923       C  0.57109538  0.73329532  0.91480658     0.26400
C2924       C  0.58256521  0.73473369  0.90509366    -0.11300
C2925       C  0.59161213  0.74686463  0.90568468    -0.25300
C2926       C  0.58941143  0.75741521  0.91631160     0.37200
C2927       C  0.55692810  0.74243949  0.93626896     0.06800
F2928       F  0.56192461  0.72191973  0.91327257    -0.19000
H2929       H  0.58423916  0.72657153  0.89686375     0.16600
F2930       F  0.59822930  0.76914180  0.91707001    -0.22800
H2931       H  0.57681270  0.76403189  0.93453424     0.18400
C2932       C  0.55425563  0.72931085  0.94356826     0.26400
C2933       C  0.54315219  0.72837640  0.95376383    -0.11300
C2934       C  0.53486007  0.74058625  0.95721540    -0.25300
C2935       C  0.53761520  0.75374188  0.95010687     0.37300
C2936       C  0.54842426  0.75458867  0.93961260    -0.26900
F2937       F  0.56276662  0.71756923  0.94136422    -0.19100
H2938       H  0.54126987  0.71821930  0.95931568     0.16600
F2939       F  0.52986010  0.76576498  0.95337117    -0.22800
H2940       H  0.55022487  0.76480577  0.93414744     0.18400
C2941       C  0.35654907  0.73962916  0.92936650    -0.26800
C2942       C  0.36204459  0.72574688  0.93235938     0.06800
C2943       C  0.37334857  0.72034915  0.92371903     0.26400
C2944       C  0.37901531  0.72874609  0.91246026    -0.11300
C2945       C  0.37336714  0.74250932  0.90944242    -0.25300
C2946       C  0.36206557  0.74789681  0.91796751     0.37200
C2947       C  0.35537181  0.71685276  0.94401743     0.06800
F2948       F  0.37851174  0.70675315  0.92572416    -0.19000
H2949       H  0.38763598  0.72437808  0.90586785     0.16600
F2950       F  0.35657375  0.76128080  0.91545982    -0.22800
H2951       H  0.34792917  0.74409306  0.93589219     0.18400
C2952       C  0.36377497  0.70942099  0.95433937     0.26400
C2953       C  0.35709116  0.70121653  0.96521579    -0.11300
C2954       C  0.34196290  0.70058845  0.96621780    -0.25300
C2955       C  0.33360336  0.70806468  0.95595502     0.37300
C2956       C  0.34025302  0.71599797  0.94496487    -0.26900
F2957       F  0.37839575  0.71050786  0.95426774    -0.19100
H2958       H  0.36373856  0.69566392  0.97309326     0.16600
F2959       F  0.31895715  0.70743896  0.95632141    -0.22800
H2960       H  0.33352616  0.72145125  0.93708576     0.18400
C2961       C  0.43029466  0.78156190  0.87718259    -0.26800
C2962       C  0.43240059  0.77970716  0.86225224     0.06800
C2963       C  0.42209477  0.77184985  0.85429720     0.26400
C2964       C  0.41001587  0.76592036  0.86119903    -0.11300
C2965       C  0.40789674  0.76771170  0.87614254    -0.25300
C2966       C  0.41810984  0.77577922  0.88406809     0.37200
C2967       C  0.44507964  0.78638001  0.85497366     0.06800
F2968       F  0.42342473  0.77035457  0.83976043    -0.19000
H2969       H  0.40220848  0.75996358  0.85480253     0.16600
F2970       F  0.41604140  0.77872369  0.89827467    -0.22800
H2971       H  0.43803878  0.78767784  0.88350445     0.18400
C2972       C  0.44811757  0.80119639  0.85670130     0.26400
C2973       C  0.45997834  0.80745714  0.84973254    -0.11300
C2974       C  0.46900936  0.79915221  0.84076772    -0.25300
C2975       C  0.46599660  0.78429087  0.83906406     0.37300
C2976       C  0.45415116  0.77800282  0.84613161    -0.26900
F2977       F  0.43931565  0.80974786  0.86473108    -0.19100
H2978       H  0.46188327  0.81895222  0.85109181     0.16600
F2979       F  0.47457146  0.77578718  0.83074717    -0.22800
H2980       H  0.45208935  0.76653557  0.84476231     0.18400
C2981       C  0.42807254  0.74178528  0.91249473    -0.26800
C2982       C  0.42604402  0.74610777  0.92692571     0.06800
C2983       C  0.41314149  0.75309387  0.93081620     0.26400
C2984       C  0.40265762  0.75594021  0.92040524    -0.11300
C2985       C  0.40467650  0.75168124  0.90599363    -0.25300
C2986       C  0.41742477  0.74446281  0.90209461     0.37200
C2987       C  0.43754617  0.74382135  0.93779940     0.06800
F2988       F  0.41057903  0.75699735  0.94472943    -0.19000
H2989       H  0.39288161  0.76151886  0.92356657     0.16600
F2990       F  0.41948362  0.73989879  0.88831488    -0.22800
H2991       H  0.43797838  0.73648483  0.90925249     0.18400
C2992       C  0.44410286  0.73019375  0.93961830     0.26400
C2993       C  0.45497549  0.72834216  0.94997100    -0.11300
C2994       C  0.45931581  0.74001515  0.95863831    -0.25300
C2995       C  0.45277666  0.75357539  0.95686583     0.37300
C2996       C  0.44203489  0.75546391  0.94648619    -0.26900
F2997       F  0.43976669  0.71863969  0.93164267    -0.19100
H2998       H  0.45996206  0.71782655  0.95130498     0.16600
F2999       F  0.45692052  0.76500263  0.96512474    -0.22800
H3000       H  0.43729050  0.76609076  0.94513373     0.18400
C3001       C  0.62352740  0.07240148  0.27833692    -0.26800
C3002       C  0.63458799  0.06363040  0.27271285     0.06800
C3003       C  0.63890886  0.06564507  0.25824810     0.26400
C3004       C  0.63278398  0.07664805  0.24988144    -0.11300
C3005       C  0.62196969  0.08552267  0.25561430    -0.25300
C3006       C  0.61722227  0.08324826  0.26984336     0.37200
C3007       C  0.64157323  0.05243612  0.28191318     0.06800
F3008       F  0.64889059  0.05682547  0.25212235    -0.19000
H3009       H  0.63643779  0.07822644  0.23886991     0.16600
F3010       F  0.60684080  0.09182334  0.27564535    -0.22800
H3011       H  0.61998412  0.07104136  0.28941079     0.18400
C3012       C  0.65671816  0.05136158  0.28271342     0.26400
C3013       C  0.66317199  0.04028636  0.29073642    -0.11300
C3014       C  0.65471333  0.03025952  0.29842748    -0.25300
C3015       C  0.63957485  0.03169207  0.29812174     0.37300
C3016       C  0.63310586  0.04264300  0.28988702    -0.26900
F3017       F  0.66530130  0.06119319  0.27596574    -0.19100
H3018       H  0.67484961  0.03965665  0.29106629     0.16600
F3019       F  0.63099269  0.02224221  0.30537849    -0.22800
H3020       H  0.62143252  0.04328972  0.28949433     0.18400
C3021       C  0.56919094  0.11619253  0.21021894    -0.26800
C3022       C  0.56488313  0.13047121  0.21332207     0.06800
C3023       C  0.57266068  0.13833392  0.22380947     0.26400
C3024       C  0.58429022  0.13198717  0.23105278    -0.11300
C3025       C  0.58857447  0.11774652  0.22796071    -0.25300
C3026       C  0.58102921  0.10994275  0.21729551     0.37200
C3027       C  0.55240653  0.13714864  0.20559795     0.06800
F3028       F  0.56936003  0.15234254  0.22674754    -0.19000
H3029       H  0.59007819  0.13830116  0.23905352     0.16600
F3030       F  0.58547060  0.09657397  0.21319013    -0.22800
H3031       H  0.56341811  0.10984806  0.20224120     0.18400
C3032       C  0.55073710  0.13570581  0.19052458     0.26400
C3033       C  0.53897062  0.14206897  0.18347104    -0.11300
C3034       C  0.52878461  0.15027666  0.19118353    -0.25300
C3035       C  0.53052572  0.15186639  0.20621016     0.37300
C3036       C  0.54208304  0.14519892  0.21331590    -0.26900
F3037       F  0.56072295  0.12858027  0.18249719    -0.19100
H3038       H  0.53803679  0.14086679  0.17186005     0.16600
F3039       F  0.52095785  0.15967602  0.21411039    -0.22800
H3040       H  0.54290774  0.14628792  0.22494038     0.18400
C3041       C  0.58431688  0.06238618  0.23818788    -0.26800
C3042       C  0.57136071  0.06502415  0.24563259     0.06800
C3043       C  0.56873669  0.07900222  0.25113542     0.26400
C3044       C  0.57898986  0.08999394  0.24938186    -0.11300
C3045       C  0.59198394  0.08723369  0.24216383    -0.25300
C3046       C  0.59452970  0.07339903  0.23642782     0.37200
C3047       C  0.56066655  0.05320686  0.24766602     0.06800
F3048       F  0.55618857  0.08208239  0.25804987    -0.19000
H3049       H  0.57692367  0.10063514  0.25382752     0.16600
F3050       F  0.60683233  0.07064193  0.22896923    -0.22800
H3051       H  0.58662301  0.05172780  0.23389941     0.18400
C3052       C  0.55622325  0.04454288  0.23594195     0.26400
C3053       C  0.54574721  0.03382136  0.23792448    -0.11300
C3054       C  0.53952800  0.03160422  0.25154965    -0.25300
C3055       C  0.54412689  0.03995857  0.26333755     0.37300
C3056       C  0.55467360  0.05063626  0.26140502    -0.26900
F3057       F  0.56157452  0.04679719  0.22246893    -0.19100
H3058       H  0.54220899  0.02743930  0.22875152     0.16600
F3059       F  0.53830183  0.03786384  0.27663338    -0.22800
H3060       H  0.55813397  0.05695497  0.27064448     0.18400
C3061       C  0.37377488  0.06261050  0.27324840    -0.26800
C3062       C  0.36171345  0.05493897  0.26800456     0.06800
C3063       C  0.35651258  0.05811671  0.25405629     0.26400
C3064       C  0.36281163  0.06916591  0.24588091    -0.11300
C3065       C  0.37459161  0.07704269  0.25127059    -0.25300
C3066       C  0.38021928  0.07354090  0.26493912     0.37200
C3067       C  0.35409492  0.04426180  0.27734208     0.06800
F3068       F  0.34529378  0.05056403  0.24833155    -0.19000
H3069       H  0.35840066  0.07168642  0.23532893     0.16600
F3070       F  0.39137266  0.08123164  0.27060157    -0.22800
H3071       H  0.37787437  0.06052328  0.28401324     0.18400
C3072       C  0.36171617  0.03361087  0.28509144     0.26400
C3073       C  0.35430951  0.02380783  0.29395076    -0.11300
C3074       C  0.33917887  0.02426408  0.29506798    -0.25300
C3075       C  0.33155517  0.03487997  0.28730980     0.37300
C3076       C  0.33897471  0.04483877  0.27867688    -0.26900
F3077       F  0.37626193  0.03238601  0.28377421    -0.19100
H3078       H  0.36039678  0.01560420  0.29967874     0.16600
F3079       F  0.31696017  0.03585062  0.28829876    -0.22800
H3080       H  0.33287006  0.05312641  0.27309659     0.18400
C3081       C  0.45411386  0.12485111  0.19745461    -0.26800
C3082       C  0.44182965  0.13251605  0.20215197     0.06800
C3083       C  0.44129376  0.14758338  0.19967505     0.26400
C3084       C  0.45294619  0.15477021  0.19327745    -0.11300
C3085       C  0.46517739  0.14711670  0.18869397    -0.25300
C3086       C  0.46557045  0.13202386  0.19055824     0.37200
C3087       C  0.42983225  0.12496212  0.20994141     0.06800
F3088       F  0.42938122  0.15539130  0.20314210    -0.19000
H3089       H  0.45228617  0.16636579  0.19162021     0.16600
F3090       F  0.47724078  0.12429862  0.18620596    -0.22800
H3091       H  0.45501736  0.11332790  0.19937622     0.18400
C3092       C  0.42470095  0.11124645  0.20551552     0.26400
C3093       C  0.41336123  0.10449082  0.21298201    -0.11300
C3094       C  0.40668933  0.11142675  0.22467999    -0.25300
C3095       C  0.41166139  0.12507542  0.22906107     0.37300
C3096       C  0.42330139  0.13159780  0.22198243    -0.26900
F3097       F  0.43020581  0.10460376  0.19365744    -0.19100
H3098       H  0.40946364  0.09403905  0.20934657     0.16600
F3099       F  0.40533987  0.13202454  0.24032719    -0.22800
H3100       H  0.42720447  0.14190386  0.22597364     0.18400
C3101       C  0.44809391  0.05108604  0.25908160    -0.26800
C3102       C  0.44156836  0.05286103  0.24546693     0.06800
C3103       C  0.44671997  0.04475552  0.23366438     0.26400
C3104       C  0.45783775  0.03474382  0.23560400    -0.11300
C3105       C  0.46408604  0.03278016  0.24925404    -0.25300
C3106       C  0.45927647  0.04109567  0.26098587     0.37200
C3107       C  0.42925969  0.06295789  0.24372621     0.06800
F3108       F  0.44112774  0.04663969  0.22023000    -0.19000
H3109       H  0.46157705  0.02845314  0.22646286     0.16600
F3110       F  0.46519712  0.03930952  0.27428992    -0.22800
H3111       H  0.44429675  0.05721354  0.26830618     0.18400
C3112       C  0.41628708  0.05830743  0.23726395     0.26400
C3113       C  0.40473060  0.06787685  0.23572263    -0.11300
C3114       C  0.40584948  0.08217901  0.24065044    -0.25300
C3115       C  0.41869365  0.08680848  0.24730887     0.37300
C3116       C  0.43029956  0.07725298  0.24882954    -0.26900
F3117       F  0.41464745  0.04441180  0.23276905    -0.19100
H3118       H  0.39486536  0.06416451  0.23062792     0.16600
F3119       F  0.41985715  0.10044925  0.25263057    -0.22800
H3120       H  0.44013781  0.08102147  0.25394696     0.18400
C3121       C  0.63176447  0.93469934  0.25823234    -0.26800
C3122       C  0.63884073  0.93206139  0.27139287     0.06800
C3123       C  0.63996940  0.91775211  0.27645643     0.26400
C3124       C  0.63406835  0.90631565  0.26847000    -0.11300
C3125       C  0.62674545  0.90897184  0.25545399    -0.25300
C3126       C  0.62573996  0.92327230  0.25031048     0.37200
C3127       C  0.64486350  0.94425805  0.27989037     0.06800
F3128       F  0.64700095  0.91482983  0.28899971    -0.19000
H3129       H  0.63508036  0.89535828  0.27252170     0.16600
F3130       F  0.61931792  0.92616661  0.23744779    -0.22800
H3131       H  0.63082952  0.94565030  0.25414620     0.18400
C3132       C  0.65531828  0.95356630  0.27395623     0.26400
C3133       C  0.66105680  0.96490478  0.28222526    -0.11300
C3134       C  0.65634660  0.96728463  0.29649189    -0.25300
C3135       C  0.64573659  0.95800455  0.30232552     0.37300
C3136       C  0.64014485  0.94659133  0.29410005    -0.26900
F3137       F  0.66024861  0.95145263  0.26030256    -0.19100
H3138       H  0.66921510  0.97182535  0.27744730     0.16600
F3139       F  0.64098392  0.95968826  0.31609748    -0.22800
H3140       H  0.63205309  0.93955013  0.29882438     0.18400
C3141       C  0.58102913  0.86766277  0.20591296    -0.26800
C3142       C  0.56795236  0.86644256  0.21349509     0.06800
C3143       C  0.56736986  0.87102390  0.22798429     0.26400
C3144       C  0.57971213  0.87665769  0.23473100    -0.11300
C3145       C  0.59284635  0.87765810  0.22719673    -0.25300
C3146       C  0.59340270  0.87311226  0.21270973     0.37200
C3147       C  0.55521101  0.85977566  0.20637684     0.06800
F3148       F  0.55485053  0.87012052  0.23556121    -0.19000
H3149       H  0.57907956  0.88001880  0.24592853     0.16600
F3150       F  0.60587656  0.87411601  0.20507408    -0.22800
H3151       H  0.58171436  0.86411005  0.19477537     0.18400
C3152       C  0.54960770  0.86547689  0.19346013     0.26400
C3153       C  0.53813470  0.85854546  0.18639109    -0.11300
C3154       C  0.53206171  0.84573570  0.19200216    -0.25300
C3155       C  0.53763944  0.84015606  0.20507454     0.37300
C3156       C  0.54903328  0.84717162  0.21216209    -0.26900
F3157       F  0.55517990  0.87781227  0.18773603    -0.19100
H3158       H  0.53408375  0.86318057  0.17643321     0.16600
F3159       F  0.53234246  0.82776126  0.21092804    -0.22800
H3160       H  0.55330672  0.84253792  0.22203367     0.18400
C3161       C  0.58033062  0.92109813  0.25914435    -0.26800
C3162       C  0.57332178  0.92674134  0.24689060     0.06800
C3163       C  0.57768116  0.92207465  0.23307294     0.26400
C3164       C  0.58874421  0.91195876  0.23162894    -0.11300
C3165       C  0.59559903  0.90625194  0.24386165    -0.25300
C3166       C  0.59131385  0.91085141  0.25766509     0.37200
C3167       C  0.56148695  0.93741340  0.24854342     0.06800
F3168       F  0.57103147  0.92700713  0.22096089    -0.19000
H3169       H  0.59200905  0.90851940  0.22093093     0.16600
F3170       F  0.59754949  0.90520509  0.26968012    -0.22800
H3171       H  0.57732248  0.92465340  0.26988068     0.18400
C3172       C  0.55030180  0.93519484  0.25862784     0.26400
C3173       C  0.53918772  0.94532829  0.25998442    -0.11300
C3174       C  0.53886080  0.95763787  0.25110693    -0.25300
C3175       C  0.54994001  0.95978735  0.24094243     0.37300
C3176       C  0.56122959  0.94987460  0.23984086    -0.26900
F3177       F  0.54989129  0.92305834  0.26689375    -0.19100
H3178       H  0.53073810  0.94352608  0.26787899     0.16600
F3179       F  0.54980749  0.97149462  0.23206308    -0.22800
H3180       H  0.56981070  0.95196574  0.23216583     0.18400
C3181       C  0.35313526  0.93263410  0.25030544    -0.26800
C3182       C  0.35887896  0.93481545  0.26420854     0.06800
C3183       C  0.37118756  0.92689097  0.26839035     0.26400
C3184       C  0.37754568  0.91705905  0.25881149    -0.11300
C3185       C  0.37162800  0.91476203  0.24503338    -0.25300
C3186       C  0.35936640  0.92264119  0.24083829     0.37200
C3187       C  0.35163539  0.94497596  0.27434297     0.06800
F3188       F  0.37665408  0.92809541  0.28195540    -0.19000
H3189       H  0.38678394  0.91082116  0.26236569     0.16600
F3190       F  0.35346658  0.92073079  0.22753845    -0.22800
H3191       H  0.34374052  0.93865483  0.24678499     0.18400
C3192       C  0.35956467  0.95535341  0.28219395     0.26400
C3193       C  0.35252420  0.96478709  0.29166637    -0.11300
C3194       C  0.33744523  0.96433187  0.29323736    -0.25300
C3195       C  0.32947567  0.95408673  0.28531187     0.37300
C3196       C  0.33654043  0.94445913  0.27603407    -0.26900
F3197       F  0.37403722  0.95677010  0.28032398    -0.19100
H3198       H  0.35884436  0.97277007  0.29748591     0.16600
F3199       F  0.31491544  0.95315927  0.28677110    -0.22800
H3200       H  0.33020049  0.93650537  0.27020296     0.18400
C3201       C  0.42162515  0.86224069  0.21366538    -0.26800
C3202       C  0.43206200  0.87101920  0.20694389     0.06800
C3203       C  0.42940498  0.88599360  0.20575481     0.26400
C3204       C  0.41667149  0.89195966  0.21135824    -0.11300
C3205       C  0.40641942  0.88317239  0.21835490    -0.25300
C3206       C  0.40899723  0.86820942  0.21935552     0.37200
C3207       C  0.44545074  0.86430305  0.20105441     0.06800
F3208       F  0.43919589  0.89491044  0.19941210    -0.19000
H3209       H  0.41478726  0.90345070  0.21008696     0.16600
F3210       F  0.39942463  0.85934073  0.22608993    -0.22800
H3211       H  0.42320029  0.85064992  0.21444092     0.18400
C3212       C  0.45320425  0.85402719  0.20918546     0.26400
C3213       C  0.46490905  0.84667171  0.20309907    -0.11300
C3214       C  0.46933236  0.84950510  0.18884567    -0.25300
C3215       C  0.46199895  0.86029742  0.18092946     0.37300
C3216       C  0.45014089  0.86750451  0.18696595    -0.26900
F3217       F  0.44946428  0.85106966  0.22306231    -0.19100
H3218       H  0.47044866  0.83862725  0.20955730     0.16600
F3219       F  0.46587174  0.86353716  0.16715244    -0.22800
H3220       H  0.44431540  0.87525719  0.18040722     0.18400
C3221       C  0.41500035  0.93485507  0.23362381    -0.26800
C3222       C  0.42689925  0.92989972  0.24164168     0.06800
C3223       C  0.42672160  0.91571187  0.24719297     0.26400
C3224       C  0.41504886  0.90653235  0.24429410    -0.11300
C3225       C  0.40335972  0.91142977  0.23601225    -0.25300
C3226       C  0.40329307  0.92571539  0.23086142     0.37200
C3227       C  0.43954491  0.93948533  0.24386376     0.06800
F3228       F  0.43804875  0.91057435  0.25495712    -0.19000
H3229       H  0.41515926  0.89552439  0.24832139     0.16600
F3230       F  0.39213575  0.93059644  0.22269861    -0.22800
H3231       H  0.41483842  0.94579733  0.22940982     0.18400
C3232       C  0.44616524  0.94640687  0.23203102     0.26400
C3233       C  0.45782544  0.95576197  0.23423012    -0.11300
C3234       C  0.46309193  0.95828613  0.24820280    -0.25300
C3235       C  0.45670945  0.95122150  0.26001608     0.37300
C3236       C  0.44498923  0.94189576  0.25784469    -0.26900
F3237       F  0.44145190  0.94400112  0.21833922    -0.19100
H3238       H  0.46269858  0.96116833  0.22504978     0.16600
F3239       F  0.46161666  0.95363190  0.27363224    -0.22800
H3240       H  0.43997786  0.93676393  0.26710277     0.18400
C3241       C  0.29381934  0.07615083  0.62294948    -0.26800
C3242       C  0.28545687  0.06566554  0.63013503     0.06800
C3243       C  0.27040017  0.06751794  0.63096399     0.26400
C3244       C  0.26389529  0.07967998  0.62482215    -0.11300
C3245       C  0.27223670  0.09006110  0.61760721    -0.25300
C3246       C  0.28726536  0.08832658  0.61678441     0.37200
C3247       C  0.29248313  0.05318517  0.63732684     0.06800
F3248       F  0.26197649  0.05752616  0.63766720    -0.19000
H3249       H  0.25234371  0.08111465  0.62590092     0.16600
F3250       F  0.29556884  0.09847643  0.61016109    -0.22800
H3251       H  0.30545161  0.07505653  0.62240053     0.18400
C3252       C  0.30203321  0.04410097  0.62978929     0.26400
C3253       C  0.30862061  0.03243418  0.63684519    -0.11300
C3254       C  0.30579644  0.02959614  0.65152704    -0.25300
C3255       C  0.29619228  0.03873505  0.65901761     0.37300
C3256       C  0.28966291  0.05038305  0.65196150    -0.26900
F3257       F  0.30476939  0.04633789  0.61554682    -0.19100
H3258       H  0.31590388  0.02557853  0.63077642     0.16600
F3259       F  0.29332562  0.03668687  0.67325883    -0.22800
H3260       H  0.28250459  0.05738588  0.65801909     0.18400
C3261       C  0.21087612  0.13145167  0.54106907    -0.26800
C3262       C  0.21685901  0.14007518  0.55210886     0.06800
C3263       C  0.21412410  0.15505660  0.55208773     0.26400
C3264       C  0.20629141  0.16133442  0.54087991    -0.11300
C3265       C  0.20065401  0.15282173  0.52967172    -0.25300
C3266       C  0.20266853  0.13774338  0.52999594     0.37200
C3267       C  0.22638466  0.13368072  0.56332285     0.06800
F3268       F  0.21895877  0.16366408  0.56296493    -0.19000
H3269       H  0.20456089  0.17293566  0.54099232     0.16600
F3270       F  0.19731378  0.12921764  0.51930145    -0.22800
H3271       H  0.21289842  0.11991083  0.54078194     0.18400
C3272       C  0.22253457  0.12093217  0.57073060     0.26400
C3273       C  0.23145937  0.11552173  0.58167170    -0.11300
C3274       C  0.24424667  0.12277763  0.58546964    -0.25300
C3275       C  0.24819346  0.13537269  0.57796720     0.37300
C3276       C  0.23943169  0.14063972  0.56689169    -0.26900
F3277       F  0.20991035  0.11403014  0.56781701    -0.19100
H3278       H  0.22816829  0.10588235  0.58747641     0.16600
F3279       F  0.26063771  0.14246623  0.58119356    -0.22800
H3280       H  0.24284725  0.15024389  0.56109869     0.18400
C3281       C  0.26046224  0.08211669  0.56496118    -0.26800
C3282       C  0.25241442  0.06965878  0.56834803     0.06800
C3283       C  0.24612529  0.06845180  0.58214647     0.26400
C3284       C  0.24776339  0.07959667  0.59224412    -0.11300
C3285       C  0.25586099  0.09196461  0.58885423    -0.25300
C3286       C  0.26216425  0.09319343  0.57511005     0.37200
C3287       C  0.25084339  0.05796245  0.55748168     0.06800
F3288       F  0.23866997  0.05638255  0.58597734    -0.19000
H3289       H  0.24255251  0.07866528  0.60265146     0.16600
F3290       F  0.27002396  0.10509273  0.57157825    -0.22800
H3291       H  0.26535860  0.08329568  0.55439346     0.18400
C3292       C  0.23715335  0.05243589  0.55374416     0.26400
C3293       C  0.23589884  0.04150759  0.54334788    -0.11300
C3294       C  0.24822495  0.03604347  0.53648239    -0.25300
C3295       C  0.26187493  0.04157635  0.54010692     0.37300
C3296       C  0.26315566  0.05245283  0.55052961    -0.26900
F3297       F  0.22498066  0.05789786  0.55980821    -0.19100
H3298       H  0.22530652  0.03738838  0.54051894     0.16600
F3299       F  0.27392830  0.03641074  0.53356378    -0.22800
H3300       H  0.27378913  0.05653941  0.55325017     0.18400
C3301       C  0.27044554  0.06833454  0.35825706    -0.26800
C3302       C  0.28155261  0.06112312  0.36568273     0.06800
C3303       C  0.28639822  0.06677178  0.37897999     0.26400
C3304       C  0.28008207  0.07927519  0.38471373    -0.11300
C3305       C  0.26891818  0.08635315  0.37728164    -0.25300
C3306       C  0.26416628  0.08079593  0.36397620     0.37200
C3307       C  0.28821266  0.04806170  0.35912831     0.06800
F3308       F  0.29706547  0.06011707  0.38652811    -0.19000
H3309       H  0.28398529  0.08350217  0.39491677     0.16600
F3310       F  0.25321324  0.08723034  0.35664529    -0.22800
H3311       H  0.26671069  0.06439732  0.34787786     0.18400
C3312       C  0.27954042  0.03711260  0.35301240     0.26400
C3313       C  0.28584168  0.02579297  0.34523692    -0.11300
C3314       C  0.30089678  0.02494224  0.34375063    -0.25300
C3315       C  0.30961997  0.03543057  0.35052151     0.37300
C3316       C  0.30330270  0.04695279  0.35800468    -0.26900
F3317       F  0.26495726  0.03738513  0.35451664    -0.19100
H3318       H  0.27893755  0.01767078  0.34034957     0.16600
F3319       F  0.32421720  0.03500059  0.34924445    -0.22800
H3320       H  0.31021592  0.05531023  0.36245226     0.18400
C3321       C  0.23753749  0.14208521  0.42503207    -0.26800
C3322       C  0.22864783  0.13352609  0.43388426     0.06800
C3323       C  0.22766164  0.11858586  0.43110372     0.26400
C3324       C  0.23499093  0.11250692  0.41939977    -0.11300
C3325       C  0.24409810  0.12099461  0.41066223    -0.25300
C3326       C  0.24532765  0.13590538  0.41368128     0.37200
C3327       C  0.22004995  0.14032403  0.44560020     0.06800
F3328       F  0.21966833  0.10980967  0.43974889    -0.19000
H3329       H  0.23320076  0.10118527  0.41709362     0.16600
F3330       F  0.25408320  0.14457683  0.40569648    -0.22800
H3331       H  0.23832477  0.15365501  0.42677358     0.18400
C3332       C  0.22629451  0.15051088  0.45503992     0.26400
C3333       C  0.21793010  0.15716778  0.46569208    -0.11300
C3334       C  0.20322575  0.15371732  0.46729219    -0.25300
C3335       C  0.19700454  0.14341622  0.45793484     0.37300
C3336       C  0.20533492  0.13690579  0.44715723    -0.26900
F3337       F  0.24054973  0.15385537  0.45416491    -0.19100
H3338       H  0.22303990  0.16495464  0.47281043     0.16600
F3339       F  0.18280110  0.13987905  0.45890224    -0.22800
H3340       H  0.20018153  0.12934540  0.43983163     0.18400
C3341       C  0.26422066  0.05200103  0.44846518    -0.26800
C3342       C  0.25218777  0.05718066  0.44078483     0.06800
C3343       C  0.23845110  0.05129723  0.44379892     0.26400
C3344       C  0.23688321  0.04039782  0.45419085    -0.11300
C3345       C  0.24892893  0.03526682  0.46178235    -0.25300
C3346       C  0.26261118  0.04116641  0.45891501     0.37200
C3347       C  0.25403435  0.06843421  0.42944453     0.06800
F3348       F  0.22650253  0.05631297  0.43693102    -0.19000
H3349       H  0.22625027  0.03603992  0.45644324     0.16600
F3350       F  0.27439115  0.03637799  0.46621257    -0.22800
H3351       H  0.27490942  0.05622203  0.44623403     0.18400
C3352       C  0.26186525  0.08126063  0.43214717     0.26400
C3353       C  0.26319245  0.09184084  0.42137111    -0.11300
C3354       C  0.25672431  0.08981066  0.40780618    -0.25300
C3355       C  0.24906268  0.07696920  0.40505582     0.37300
C3356       C  0.24781184  0.06637474  0.41574483    -0.26900
F3357       F  0.26779065  0.08378683  0.44533349    -0.19100
H3358       H  0.26902829  0.10175469  0.42364203     0.16600
F3359       F  0.24233329  0.07494452  0.39218125    -0.22800
H3360       H  0.24188539  0.05654548  0.41333440     0.18400
C3361       C  0.29792227  0.94451300  0.64039727    -0.26800
C3362       C  0.28282513  0.94573978  0.64163914     0.06800
C3363       C  0.27702240  0.95799210  0.64856215     0.26400
C3364       C  0.28614509  0.96854217  0.65436557    -0.11300
C3365       C  0.30119435  0.96729736  0.65312281    -0.25300
C3366       C  0.30704776  0.95525645  0.64594549     0.37200
C3367       C  0.27322155  0.93412499  0.63600332     0.06800
F3368       F  0.26252358  0.95991290  0.64953819    -0.19000
H3369       H  0.28141740  0.97780479  0.65975846     0.16600
F3370       F  0.32156533  0.95354887  0.64485209    -0.22800
H3371       H  0.30268924  0.93506427  0.63539130     0.18400
C3372       C  0.27544761  0.92807510  0.62221660     0.26400
C3373       C  0.26642332  0.91703609  0.61715601    -0.11300
C3374       C  0.25485842  0.91200162  0.62558687    -0.25300
C3375       C  0.25259882  0.91803635  0.63934648     0.37300
C3376       C  0.26175406  0.92891157  0.64451012    -0.26900
F3377       F  0.28617562  0.93299650  0.61350551    -0.19100
H3378       H  0.26855577  0.91235271  0.60664653     0.16600
F3379       F  0.24138401  0.91360721  0.64770690    -0.22800
H3380       H  0.25992769  0.93318895  0.65525205     0.18400
C3381       C  0.19193207  0.86238206  0.55272531    -0.26800
C3382       C  0.20658613  0.85954529  0.55557072     0.06800
C3383       C  0.21393292  0.84963778  0.54663465     0.26400
C3384       C  0.20664369  0.84254844  0.53542695    -0.11300
C3385       C  0.19197974  0.84535651  0.53264862    -0.25300
C3386       C  0.18473207  0.85552747  0.54131326     0.37200
C3387       C  0.21387417  0.86649863  0.56817224     0.06800
F3388       F  0.22820733  0.84690780  0.54857551    -0.19000
H3389       H  0.21254095  0.83488008  0.52883479     0.16600
F3390       F  0.17053787  0.85846160  0.53915545    -0.22800
H3391       H  0.18587987  0.86966599  0.55959167     0.18400
C3392       C  0.21162850  0.88122193  0.57149407     0.26400
C3393       C  0.21777244  0.88732781  0.58390084    -0.11300
C3394       C  0.22682147  0.87911764  0.59289720    -0.25300
C3395       C  0.22927135  0.86448811  0.58947561     0.37300
C3396       C  0.22272788  0.85824100  0.57736321    -0.26900
F3397       F  0.20369815  0.88981207  0.56263320    -0.19100
H3398       H  0.21550023  0.89854113  0.58641675     0.16600
F3399       F  0.23817208  0.85624399  0.59772945    -0.22800
H3400       H  0.22446304  0.84683845  0.57529877     0.18400
C3401       C  0.23806539  0.93379077  0.58601877    -0.26800
C3402       C  0.24222710  0.92947422  0.57206205     0.06800
C3403       C  0.24621948  0.91494420  0.56975699     0.26400
C3404       C  0.24618208  0.90508630  0.58121823    -0.11300
C3405       C  0.24152013  0.90930104  0.59502016    -0.25300
C3406       C  0.23747310  0.92378776  0.59733066     0.37200
C3407       C  0.24253666  0.94018804  0.56006563     0.06800
F3408       F  0.24968147  0.91013041  0.55633987    -0.19000
H3409       H  0.24942002  0.89400394  0.57924755     0.16600
F3410       F  0.23262409  0.92820370  0.61044239    -0.22800
H3411       H  0.23519693  0.94494320  0.58818016     0.18400
C3412       C  0.23109882  0.95003952  0.55800229     0.26400
C3413       C  0.23177036  0.96032659  0.54693343    -0.11300
C3414       C  0.24370982  0.96085011  0.53764553    -0.25300
C3415       C  0.25503884  0.95096133  0.53952246     0.37300
C3416       C  0.25448835  0.94079881  0.55070195    -0.26900
F3417       F  0.21914532  0.94955840  0.56648002    -0.19100
H3418       H  0.22292782  0.96786214  0.54552136     0.16600
F3419       F  0.26670886  0.95129962  0.53065834    -0.22800
H3420       H  0.26354297  0.93354404  0.55218133     0.18400
C3421       C  0.26202445  0.92909793  0.36780631    -0.26800
C3422       C  0.27690918  0.92850321  0.36486764     0.06800
C3423       C  0.28477591  0.91619448  0.36915388     0.26400
C3424       C  0.27778765  0.90465453  0.37600884    -0.11300
C3425       C  0.26294232  0.90528960  0.37888333    -0.25300
C3426       C  0.25507652  0.91758428  0.37475711     0.37200
C3427       C  0.28409963  0.94055249  0.35705530     0.06800
F3428       F  0.29910813  0.91510927  0.36627157    -0.19000
H3429       H  0.28394766  0.89516498  0.37904187     0.16600
F3430       F  0.24060045  0.91820594  0.37696792    -0.22800
H3431       H  0.25576512  0.93848120  0.36466216     0.18400
C3432       C  0.27838949  0.94586607  0.34401019     0.26400
C3433       C  0.28545444  0.95695507  0.33653811    -0.11300
C3434       C  0.29838899  0.96296444  0.34184917    -0.25300
C3435       C  0.30400044  0.95773446  0.35501739     0.37300
C3436       C  0.29688673  0.94666512  0.36250569    -0.26900
F3437       F  0.26622707  0.94001991  0.33822292    -0.19100
H3438       H  0.28086314  0.96068038  0.32643340     0.16600
F3439       F  0.31632422  0.96328869  0.36073286    -0.22800
H3440       H  0.30136335  0.94287530  0.37264011     0.18400
C3441       C  0.21391611  0.86061566  0.42206240    -0.26800
C3442       C  0.21920680  0.86236891  0.43617427     0.06800
C3443       C  0.23217142  0.87004391  0.43833187     0.26400
C3444       C  0.23962820  0.87590140  0.42651110    -0.11300
C3445       C  0.23435491  0.87402552  0.41239384    -0.25300
C3446       C  0.22145055  0.86628151  0.41026469     0.37200
C3447       C  0.21113898  0.85598687  0.44846455     0.06800
F3448       F  0.23753321  0.87197074  0.45185455    -0.19000
H3449       H  0.24967083  0.88164406  0.42835199     0.16600
F3450       F  0.21605733  0.86431136  0.39675724    -0.22800
H3451       H  0.20400868  0.85464902  0.42017199     0.18400
C3452       C  0.19656840  0.85952319  0.45074075     0.26400
C3453       C  0.18874484  0.85288196  0.46184197    -0.11300
C3454       C  0.19521050  0.84242002  0.47079266    -0.25300
C3455       C  0.20989085  0.83900286  0.46858778     0.37300
C3456       C  0.21775893  0.84580704  0.45756791    -0.26900
F3457       F  0.18991298  0.86946111  0.44223315    -0.19100
H3458       H  0.17750463  0.85577529  0.46326113     0.16600
F3459       F  0.21668805  0.82913988  0.47706639    -0.22800
H3460       H  0.22896460  0.84288776  0.45592134     0.18400
C3461       C  0.23288455  0.92031728  0.42395696    -0.26800
C3462       C  0.24552323  0.92723271  0.42886113     0.06800
C3463       C  0.25888380  0.92316380  0.42283712     0.26400
C3464       C  0.25960103  0.91201617  0.41267542    -0.11300
C3465       C  0.24704002  0.90488062  0.40806971    -0.25300
C3466       C  0.23360529  0.90935267  0.41352806     0.37200
C3467       C  0.24488467  0.93834066  0.44049422     0.06800
F3468       F  0.27127340  0.93002996  0.42670246    -0.19000
H3469       H  0.27003602  0.90876916  0.40853354     0.16600
F3470       F  0.22120780  0.90314305  0.40872859    -0.22800
H3471       H  0.22246133  0.92320702  0.42838982     0.18400
C3472       C  0.23466755  0.94962668  0.44018065     0.26400
C3473       C  0.23459659  0.96016898  0.45105373    -0.11300
C3474       C  0.24473099  0.95971974  0.46234159    -0.25300
C3475       C  0.25485002  0.94841139  0.46273177     0.37300
C3476       C  0.25478522  0.93776340  0.45201813    -0.26900
F3477       F  0.22505192  0.95075024  0.42916085    -0.19100
H3478       H  0.22672586  0.96882205  0.45060169     0.16600
F3479       F  0.26488407  0.94775072  0.47341657    -0.22800
H3480       H  0.26255392  0.92903943  0.45271664     0.18400
C3481       C  0.04795047  0.71826199  0.66422904    -0.26800
C3482       C  0.04854899  0.71898754  0.64906337     0.06800
C3483       C  0.03899036  0.71039054  0.64089268     0.26400
C3484       C  0.02906378  0.70131643  0.64781244    -0.11300
C3485       C  0.02830727  0.70083566  0.66296151    -0.25300
C3486       C  0.03784709  0.70940986  0.67113971     0.37200
C3487       C  0.05920397  0.72866587  0.64193037     0.06800
F3488       F  0.03892302  0.71108627  0.62623760    -0.19000
H3489       H  0.02169493  0.69493006  0.64130694     0.16600
F3490       F  0.03761922  0.70902709  0.68581012    -0.22800
H3491       H  0.05540381  0.72450767  0.67076758     0.18400
C3492       C  0.06113984  0.74301599  0.64670649     0.26400
C3493       C  0.07171248  0.75180570  0.64045070    -0.11300
C3494       C  0.08035672  0.74658444  0.62917700    -0.25300
C3495       C  0.07832055  0.73235560  0.62419740     0.37300
C3496       C  0.06785477  0.72347307  0.63057314    -0.26900
F3497       F  0.05272837  0.74860206  0.65733937    -0.19100
H3498       H  0.07316226  0.76275381  0.64440552     0.16600
F3499       F  0.08692509  0.72680033  0.61371180    -0.22800
H3500       H  0.06679291  0.71238663  0.62690380     0.18400
C3501       C  0.13417305  0.78079449  0.58184357    -0.26800
C3502       C  0.12561844  0.78637959  0.57060814     0.06800
C3503       C  0.11047735  0.78582647  0.57202657     0.26400
C3504       C  0.10416315  0.77996533  0.58449048    -0.11300
C3505       C  0.11275547  0.77406657  0.59556161    -0.25300
C3506       C  0.12787385  0.77463882  0.59410638     0.37200
C3507       C  0.13274245  0.79236380  0.55744850     0.06800
F3508       F  0.10174612  0.79053511  0.56122358    -0.19000
H3509       H  0.09253274  0.78016810  0.58544258     0.16600
F3510       F  0.13663756  0.76894158  0.60439900    -0.22800
H3511       H  0.14584355  0.78115137  0.58111243     0.18400
C3512       C  0.12866949  0.80577878  0.55147780     0.26400
C3513       C  0.13604018  0.81140748  0.53949106    -0.11300
C3514       C  0.14779594  0.80396180  0.53335098    -0.25300
C3515       C  0.15181154  0.79052634  0.53933896     0.37300
C3516       C  0.14430224  0.78481636  0.55114510    -0.26900
F3517       F  0.11805829  0.81381443  0.55762132    -0.19100
H3518       H  0.13278893  0.82185148  0.53529054     0.16600
F3519       F  0.16309421  0.78289222  0.53393562    -0.22800
H3520       H  0.14763169  0.77444309  0.55546472     0.18400
C3521       C  0.08030655  0.74480073  0.57407482    -0.26800
C3522       C  0.06650747  0.75110644  0.57362034     0.06800
C3523       C  0.06171019  0.75929341  0.58551163     0.26400
C3524       C  0.07073963  0.76144400  0.59741221    -0.11300
C3525       C  0.08469004  0.75560368  0.59759494    -0.25300
C3526       C  0.08938519  0.74709623  0.58595685     0.37200
C3527       C  0.05711293  0.74903629  0.56082128     0.06800
F3528       F  0.04825848  0.76511533  0.58566637    -0.19000
H3529       H  0.06703095  0.76798839  0.60638034     0.16600
F3530       F  0.10275194  0.74110968  0.58612457    -0.22800
H3531       H  0.08414277  0.73835087  0.56508951     0.18400
C3532       C  0.05082309  0.76099111  0.55379556     0.26400
C3533       C  0.04126979  0.75885667  0.54229949    -0.11300
C3534       C  0.03797408  0.74482524  0.53756603    -0.25300
C3535       C  0.04458953  0.73289440  0.54420122     0.37300
C3536       C  0.05412589  0.73500641  0.55574371    -0.26900
F3537       F  0.05395569  0.77472031  0.55801801    -0.19100
H3538       H  0.03626853  0.76813307  0.53718077     0.16600
F3539       F  0.04147076  0.71923356  0.53976916    -0.22800
H3540       H  0.05887831  0.72567285  0.56098992     0.18400
C3541       C  0.07328547  0.70770578  0.38053124    -0.26800
C3542       C  0.06794909  0.71230025  0.36705149     0.06800
C3543       C  0.07497767  0.72377376  0.35990550     0.26400
C3544       C  0.08698372  0.73050439  0.36616214    -0.11300
C3545       C  0.09220421  0.72605731  0.37969605    -0.25300
C3546       C  0.08532805  0.71447047  0.38680119     0.37200
C3547       C  0.05516488  0.70511614  0.36039656     0.06800
F3548       F  0.07044060  0.72828542  0.34669850    -0.19000
H3549       H  0.09216209  0.73934412  0.36045901     0.16600
F3550       F  0.09045743  0.70942010  0.39958044    -0.22800
H3551       H  0.06807333  0.69889935  0.38624845     0.18400
C3552       C  0.05442321  0.68994274  0.35904581     0.26400
C3553       C  0.04257995  0.68340527  0.35221498    -0.11300
C3554       C  0.03141049  0.69186005  0.34638481    -0.25300
C3555       C  0.03201887  0.70699229  0.34793244     0.37300
C3556       C  0.04372903  0.71351143  0.35496365    -0.26900
F3557       F  0.06543523  0.68147340  0.36373955    -0.19100
H3558       H  0.04239268  0.67173829  0.35100830     0.16600
F3559       F  0.02120449  0.71546956  0.34280062    -0.22800
H3560       H  0.04390409  0.72518205  0.35611063     0.18400
C3561       C  0.14359753  0.76411687  0.42792922    -0.26800
C3562       C  0.13406662  0.77292417  0.43581881     0.06800
C3563       C  0.11935656  0.77294254  0.43197720     0.26400
C3564       C  0.11438849  0.76434855  0.42051477    -0.11300
C3565       C  0.12386119  0.75522840  0.41287927    -0.25300
C3566       C  0.13859153  0.75530625  0.41668840     0.37200
C3567       C  0.13961674  0.78190577  0.44802561     0.06800
F3568       F  0.10970764  0.78104735  0.43946646    -0.19000
H3569       H  0.10312419  0.76505618  0.41753111     0.16600
F3570       F  0.14818995  0.74671639  0.40968244    -0.22800
H3571       H  0.15502084  0.76407227  0.43045445     0.18400
C3572       C  0.14900206  0.77587203  0.45834859     0.26400
C3573       C  0.15478806  0.78442467  0.46937636    -0.11300
C3574       C  0.15131947  0.79919482  0.47054894    -0.25300
C3575       C  0.14164083  0.80521462  0.46043744     0.37300
C3576       C  0.13591747  0.79663538  0.44927131    -0.26900
F3577       F  0.15248480  0.76160814  0.45790685    -0.19100
H3578       H  0.16204955  0.77940259  0.47706138     0.16600
F3579       F  0.13807072  0.81945118  0.46100438    -0.22800
H3580       H  0.12885481  0.80160939  0.44137489     0.18400
C3581       C  0.05711423  0.72570023  0.44949746    -0.26800
C3582       C  0.06120718  0.73859833  0.44254506     0.06800
C3583       C  0.05378261  0.75148607  0.44576027     0.26400
C3584       C  0.04239502  0.75139891  0.45564021    -0.11300
C3585       C  0.03833543  0.73852346  0.46254260    -0.25300
C3586       C  0.04575748  0.72565472  0.45946648     0.37200
C3587       C  0.07281016  0.73853178  0.43155018     0.06800
F3588       F  0.05777652  0.76421770  0.43959418    -0.19000
H3589       H  0.03688733  0.76142923  0.45814181     0.16600
F3590       F  0.04201976  0.71311163  0.46614329    -0.22800
H3591       H  0.06260596  0.71564587  0.44706821     0.18400
C3592       C  0.08652684  0.73269924  0.43455903     0.26400
C3593       C  0.09732767  0.73294158  0.42398285    -0.11300
C3594       C  0.09456082  0.73893188  0.41032303    -0.25300
C3595       C  0.08090977  0.74478317  0.40735864     0.37300
C3596       C  0.07012830  0.74450723  0.41785954    -0.26900
F3597       F  0.08957818  0.72713398  0.44779349    -0.19100
H3598       H  0.10787623  0.72850854  0.42639796     0.16600
F3599       F  0.07816415  0.75110985  0.39441551    -0.22800
H3600       H  0.05963048  0.74898919  0.41530138     0.18400
C3601       C  0.92207508  0.71688762  0.63470883    -0.26800
C3602       C  0.93555907  0.72347620  0.63693592     0.06800
C3603       C  0.93767088  0.73785285  0.63238498     0.26400
C3604       C  0.92637600  0.74550666  0.62582556    -0.11300
C3605       C  0.91284234  0.73895244  0.62374400    -0.25300
C3606       C  0.91075075  0.72459373  0.62832251     0.37200
C3607       C  0.94709899  0.71541463  0.64454564     0.06800
F3608       F  0.95062416  0.74447886  0.63434131    -0.19000
H3609       H  0.92808053  0.75669044  0.62281335     0.16600
F3610       F  0.89770898  0.71805889  0.62668937    -0.22800
H3611       H  0.92022776  0.70586048  0.63825916     0.18400
C3612       C  0.95214687  0.72009291  0.65807722     0.26400
C3613       C  0.96239550  0.71193698  0.66563331    -0.11300
C3614       C  0.96791709  0.69899360  0.65981735    -0.25300
C3615       C  0.96300055  0.69448873  0.64607310     0.37300
C3616       C  0.95260307  0.70258485  0.63862518    -0.26900
F3617       F  0.94682025  0.73232811  0.66419093    -0.19100
H3618       H  0.96594093  0.71575441  0.67612066     0.16600
F3619       F  0.96814332  0.68226029  0.63979069    -0.22800
H3620       H  0.94882208  0.69884170  0.62818652     0.18400
C3621       C  0.86352931  0.76571329  0.56960482    -0.26800
C3622       C  0.86749293  0.77999579  0.56604215     0.06800
C3623       C  0.87824462  0.78690769  0.57438802     0.26400
C3624       C  0.88492393  0.77957023  0.58585126    -0.11300
C3625       C  0.88074304  0.76542715  0.58943249    -0.25300
C3626       C  0.86996383  0.75855054  0.58126780     0.37200
C3627       C  0.85995967  0.78760333  0.55396853     0.06800
F3628       F  0.88175709  0.80097766  0.57199676    -0.19000
H3629       H  0.89296357  0.78513010  0.59231730     0.16600
F3630       F  0.86556315  0.74494662  0.58468254    -0.22800
H3631       H  0.85532167  0.76011062  0.56339731     0.18400
C3632       C  0.86764000  0.79545367  0.54339134     0.26400
C3633       C  0.86028907  0.80225115  0.53200522    -0.11300
C3634       C  0.84520494  0.80108771  0.53072917    -0.25300
C3635       C  0.83753757  0.79325413  0.54128218     0.37300
C3636       C  0.84484268  0.78667216  0.55276932    -0.26900
F3637       F  0.88227943  0.79612269  0.54372341    -0.19100
H3638       H  0.86644042  0.80816855  0.52398115     0.16600
F3639       F  0.82291519  0.79227495  0.54073486    -0.22800
H3640       H  0.83862640  0.78087549  0.56082976     0.18400
C3641       C  0.91968999  0.73889851  0.57169006    -0.26800
C3642       C  0.93190633  0.74798341  0.57152547     0.06800
C3643       C  0.93330821  0.75868839  0.58229353     0.26400
C3644       C  0.92259269  0.76038975  0.59277044    -0.11300
C3645       C  0.91054538  0.75124359  0.59295797    -0.25300
C3646       C  0.90911146  0.74046930  0.58237031     0.37200
C3647       C  0.94284786  0.74663871  0.55986004     0.06800
F3648       F  0.94515961  0.76734080  0.58285619    -0.19000
H3649       H  0.92368488  0.76883249  0.60080975     0.16600
F3650       F  0.89748631  0.73150294  0.58241905    -0.22800
H3651       H  0.91823525  0.73071941  0.56342643     0.18400
C3652       C  0.94843017  0.73305211  0.55579856     0.26400
C3653       C  0.95853029  0.73204236  0.54460028    -0.11300
C3654       C  0.96344336  0.74454072  0.53749965    -0.25300
C3655       C  0.95809786  0.75810867  0.54169842     0.37300
C3656       C  0.94773557  0.75910175  0.55261110    -0.26900
F3657       F  0.94448458  0.72082539  0.56293370    -0.19100
H3658       H  0.96278179  0.72153197  0.54164112     0.16600
F3659       F  0.96293866  0.77038811  0.53523928    -0.22800
H3660       H  0.94349100  0.76966018  0.55538238     0.18400
C3661       C  0.95491281  0.71465802  0.35206440    -0.26800
C3662       C  0.94695014  0.70712554  0.36253988     0.06800
C3663       C  0.95047516  0.69262453  0.36552108     0.26400
C3664       C  0.96159213  0.68574894  0.35788146    -0.11300
C3665       C  0.96930744  0.69315793  0.34704263    -0.25300
C3666       C  0.96593323  0.70780928  0.34436428     0.37200
C3667       C  0.93443972  0.71427140  0.36953217     0.06800
F3668       F  0.94317164  0.68512702  0.37581873    -0.19000
H3669       H  0.96396835  0.67452430  0.36027309     0.16600
F3670       F  0.97316660  0.71557346  0.33422247    -0.22800
H3671       H  0.95230162  0.72580344  0.34952888     0.18400
C3672       C  0.93590939  0.72790692  0.37616075     0.26400
C3673       C  0.92376172  0.73512297  0.38148640    -0.11300
C3674       C  0.90997330  0.72886865  0.38033534    -0.25300
C3675       C  0.90851475  0.71518695  0.37386470     0.37300
C3676       C  0.92066754  0.70793645  0.36858529    -0.26900
F3677       F  0.94908579  0.73424580  0.37746451    -0.19100
H3678       H  0.92510369  0.74572731  0.38630312     0.16600
F3679       F  0.89535150  0.70878955  0.37275872    -0.22800
H3680       H  0.91927642  0.69751876  0.36338523     0.18400
C3681       C  0.87041758  0.76074617  0.43646398    -0.26800
C3682       C  0.86617669  0.77516980  0.43421020     0.06800
C3683       C  0.86791291  0.78137126  0.42044339     0.26400
C3684       C  0.87346656  0.77312838  0.40906510    -0.11300
C3685       C  0.87762019  0.75870923  0.41131088    -0.25300
C3686       C  0.87613533  0.75256173  0.42512292     0.37200
C3687       C  0.85915798  0.78338959  0.44599404     0.06800
F3688       F  0.86374814  0.79521956  0.41788094    -0.19000
H3689       H  0.87454771  0.77799904  0.39846663     0.16600
F3690       F  0.87970889  0.73851641  0.42751376    -0.22800
H3691       H  0.86913768  0.75578524  0.44699869     0.18400
C3692       C  0.84670628  0.77788805  0.45268250     0.26400
C3693       C  0.83979015  0.78579599  0.46348754    -0.11300
C3694       C  0.84512126  0.79936801  0.46791851    -0.25300
C3695       C  0.85769372  0.80484932  0.46124336     0.37300
C3696       C  0.86459171  0.79690470  0.45035503    -0.26900
F3697       F  0.84095656  0.76503558  0.44844912    -0.19100
H3698       H  0.83013602  0.78126652  0.46831683     0.16600
F3699       F  0.86329301  0.81788213  0.46509738    -0.22800
H3700       H  0.87421338  0.80128902  0.44532147     0.18400
C3701       C  0.92319040  0.72987393  0.42575557    -0.26800
C3702       C  0.92869875  0.74293732  0.43126350     0.06800
C3703       C  0.92301749  0.75613081  0.42621747     0.26400
C3704       C  0.91217991  0.75617240  0.41570004    -0.11300
C3705       C  0.90683286  0.74310480  0.41011441    -0.25300
C3706       C  0.91229233  0.72993624  0.41533665     0.37200
C3707       C  0.94045483  0.74265576  0.44211702     0.06800
F3708       F  0.92781029  0.76894910  0.43157994    -0.19000
H3709       H  0.90806164  0.76639741  0.41174238     0.16600
F3710       F  0.90701359  0.71715408  0.41037354    -0.22800
H3711       H  0.92746138  0.71959629  0.42941541     0.18400
C3712       C  0.93938290  0.73383231  0.45445754     0.26400
C3713       C  0.95072998  0.73325585  0.46438384    -0.11300
C3714       C  0.96319333  0.74172344  0.46240512    -0.25300
C3715       C  0.96419012  0.75069879  0.45015394     0.37300
C3716       C  0.95296799  0.75102409  0.44004326    -0.26900
F3717       F  0.92720607  0.72606464  0.45711034    -0.19100
H3718       H  0.94970501  0.72637137  0.47381142     0.16600
F3719       F  0.97593577  0.75925779  0.44805253    -0.22800
H3720       H  0.95406818  0.75779312  0.43054406     0.18400
C3721       C  0.72024460  0.07966389  0.63574797    -0.26800
C3722       C  0.71342778  0.06937785  0.62686953     0.06800
C3723       C  0.71232311  0.07214340  0.61194927     0.26400
C3724       C  0.71794999  0.08494890  0.60610721    -0.11300
C3725       C  0.72495280  0.09513849  0.61497261    -0.25300
C3726       C  0.72592176  0.09242336  0.62990187     0.37200
C3727       C  0.70701163  0.05614267  0.63339144     0.06800
F3728       F  0.70597385  0.06238303  0.60299144    -0.19000
H3729       H  0.71669910  0.08693020  0.59464626     0.16600
F3730       F  0.73256003  0.10200942  0.63883790    -0.22800
H3731       H  0.72101022  0.07789262  0.64729737     0.18400
C3732       C  0.71503747  0.04739463  0.64290298     0.26400
C3733       C  0.70851816  0.03559503  0.64983603    -0.11300
C3734       C  0.69392905  0.03217474  0.64731107    -0.25300
C3735       C  0.68601536  0.04073228  0.63749897     0.37300
C3736       C  0.69251102  0.05259339  0.63067469    -0.26900
F3737       F  0.72921836  0.05019774  0.64540781    -0.19100
H3738       H  0.71491053  0.02910716  0.65719243     0.16600
F3739       F  0.67182780  0.03804211  0.63492699    -0.22800
H3740       H  0.68606135  0.05928561  0.62355406     0.18400
C3741       C  0.75522065  0.14624650  0.56301286    -0.26800
C3742       C  0.76973449  0.14193581  0.56184782     0.06800
C3743       C  0.77505071  0.13134059  0.57141714     0.26400
C3744       C  0.76594187  0.12519173  0.58183619    -0.11300
C3745       C  0.75154088  0.12971862  0.58307070    -0.25300
C3746       C  0.74621852  0.14027171  0.57357212     0.37200
C3747       C  0.77917691  0.14890961  0.55087072     0.06800
F3748       F  0.78915559  0.12737441  0.57110773    -0.19000
H3749       H  0.77022899  0.11718171  0.58923342     0.16600
F3750       F  0.73225257  0.14463501  0.57438048    -0.22800
H3751       H  0.75084313  0.15428634  0.55570413     0.49600
C3752       C  0.78766417  0.14067131  0.54129899     0.26400
C3753       C  0.79587802  0.14753100  0.53057017    -0.11300
C3754       C  0.79556963  0.16266498  0.52902653    -0.25300
C3755       C  0.78726079  0.17088976  0.53874668     0.37300
C3756       C  0.77921749  0.16405945  0.54955047    -0.26900
F3757       F  0.78750710  0.12598697  0.54186453    -0.19100
H3758       H  0.80211203  0.14096493  0.52315470     0.16600
F3759       F  0.78700764  0.18556481  0.53792351    -0.22800
H3760       H  0.77291320  0.17064180  0.55689416     0.18400
C3761       C  0.75165787  0.07403168  0.58165792    -0.26800
C3762       C  0.74616019  0.07473044  0.56751220     0.06800
C3763       C  0.73917553  0.08741806  0.56287713     0.26400
C3764       C  0.73738864  0.09900946  0.57236587    -0.11300
C3765       C  0.74244717  0.09812599  0.58661523    -0.25300
C3766       C  0.74982424  0.08566477  0.59116809     0.37200
C3767       C  0.74735480  0.06214421  0.55769589     0.06800
F3768       F  0.73406247  0.08858034  0.54917064    -0.19000
H3769       H  0.73166622  0.10856584  0.56875623     0.16600
F3770       F  0.75501553  0.08471788  0.60485271    -0.22800
H3771       H  0.75705896  0.06434559  0.58542378     0.18400
C3772       C  0.76083963  0.05586904  0.55461854     0.26400
C3773       C  0.76181209  0.04440810  0.54476642    -0.11300
C3774       C  0.74936230  0.03907058  0.53795121    -0.25300
C3775       C  0.73586959  0.04511137  0.54124466     0.37300
C3776       C  0.73489049  0.05655221  0.55105357    -0.26900
F3777       F  0.77308558  0.06115855  0.56074080    -0.19100
H3778       H  0.77227829  0.03983681  0.54225457     0.16600
F3779       F  0.72368672  0.03999284  0.53485406    -0.22800
H3780       H  0.72438823  0.06111865  0.55343494     0.18400
C3781       C  0.71441240  0.04373640  0.35201440    -0.26800
C3782       C  0.70602515  0.05262568  0.36102919     0.06800
C3783       C  0.69118186  0.04948818  0.36253072     0.26400
C3784       C  0.68492278  0.03799166  0.35488271    -0.11300
C3785       C  0.69328878  0.02935163  0.34562435    -0.25300
C3786       C  0.70820041  0.03215162  0.34453013     0.37200
C3787       C  0.71271699  0.06540622  0.36829850     0.06800
F3788       F  0.68269289  0.05747350  0.37143017    -0.19000
H3789       H  0.67343984  0.03603307  0.35600277     0.16600
F3790       F  0.71684078  0.02369647  0.33622678    -0.22800
H3791       H  0.72578928  0.04594487  0.35044392     0.18400
C3792       C  0.72648172  0.06454965  0.37481191     0.26400
C3793       C  0.73286984  0.07686734  0.38092510    -0.11300
C3794       C  0.72564985  0.09021039  0.38079062    -0.25300
C3795       C  0.71187059  0.09105472  0.37451732     0.37300
C3796       C  0.70553981  0.07881788  0.36826411    -0.26900
F3797       F  0.73374611  0.05180930  0.37538817    -0.19100
H3798       H  0.74356443  0.07602035  0.38559356     0.16600
F3799       F  0.70445657  0.10372022  0.37456749    -0.22800
H3800       H  0.69510094  0.07994343  0.36311416     0.18400
C3801       C  0.75522663  0.13093678  0.43811121    -0.26800
C3802       C  0.76850243  0.13776752  0.43532847     0.06800
C3803       C  0.77390194  0.13796058  0.42115040     0.26400
C3804       C  0.76614342  0.13143396  0.40995002    -0.11300
C3805       C  0.75296474  0.12443309  0.41269328    -0.25300
C3806       C  0.74749792  0.12426568  0.42688991     0.37200
C3807       C  0.77668819  0.14492956  0.44707583     0.06800
F3808       F  0.78651783  0.14481267  0.41808992    -0.19000
H3809       H  0.77044590  0.13183212  0.39906970     0.16600
F3810       F  0.73447890  0.11816697  0.42981641    -0.22800
H3811       H  0.75085875  0.13080864  0.44897031     0.18400
C3812       C  0.77105866  0.15708074  0.45421607     0.26400
C3813       C  0.77945527  0.16455387  0.46436589    -0.11300
C3814       C  0.79356452  0.15996384  0.46771372    -0.25300
C3815       C  0.79896579  0.14744410  0.46085663     0.37300
C3816       C  0.79061712  0.14012084  0.45056878    -0.26900
F3817       F  0.75765215  0.16204226  0.45097108    -0.19100
H3818       H  0.77491630  0.17403342  0.46952726     0.16600
F3819       F  0.81240445  0.14239390  0.46381186    -0.22800
H3820       H  0.79508400  0.13072567  0.44518187     0.18400
C3821       C  0.75346255  0.04825307  0.44065738    -0.26800
C3822       C  0.74352168  0.05961311  0.44231851     0.06800
C3823       C  0.73458109  0.05986879  0.45461347     0.26400
C3824       C  0.73566125  0.04900679  0.46503990    -0.11300
C3825       C  0.74578718  0.03783940  0.46350698    -0.25300
C3826       C  0.75464343  0.03746734  0.45118642     0.37200
C3827       C  0.74251688  0.07117215  0.43126596     0.06800
F3828       F  0.72510467  0.07085377  0.45677111    -0.19000
H3829       H  0.72873550  0.04940070  0.47446608     0.16600
F3830       F  0.76453534  0.02677381  0.44945935    -0.22800
H3831       H  0.76030577  0.04773039  0.43118115     0.18400
C3832       C  0.75496829  0.07839240  0.42630653     0.26400
C3833       C  0.75380571  0.08939268  0.41599908    -0.11300
C3834       C  0.74025307  0.09341694  0.41056410    -0.25300
C3835       C  0.72781389  0.08631876  0.41560690     0.37300
C3836       C  0.72896922  0.07521364  0.42576550    -0.26900
F3837       F  0.76820120  0.07505140  0.43166477    -0.19100
H3838       H  0.76348019  0.09477076  0.41218557     0.16600
F3839       F  0.71453618  0.09031963  0.41087477    -0.22800
H3840       H  0.71925007  0.06974815  0.42934775     0.18400
C3841       C  0.73743738  0.93685181  0.62476899    -0.26800
C3842       C  0.72433258  0.93467238  0.63205358     0.06800
C3843       C  0.71921001  0.92053388  0.63421231     0.26400
C3844       C  0.72705022  0.90873100  0.62901905    -0.11300
C3845       C  0.74003040  0.91084610  0.62146880    -0.25300
C3846       C  0.74528006  0.92502992  0.61950611     0.37200
C3847       C  0.71610107  0.94710223  0.63767333     0.06800
F3848       F  0.70674779  0.91816434  0.64157199    -0.19000
H3849       H  0.72290761  0.89789364  0.63076552     0.16600
F3850       F  0.75811213  0.92745247  0.61284826    -0.22800
H3851       H  0.74157595  0.94771570  0.62318821     0.18400
C3852       C  0.72119669  0.95495546  0.64959931     0.26400
C3853       C  0.71285175  0.96608047  0.65548739    -0.11300
C3854       C  0.69930368  0.96962982  0.64953251    -0.25300
C3855       C  0.69442662  0.96192834  0.63729468     0.37300
C3856       C  0.70275005  0.95070753  0.63151888    -0.26900
F3857       F  0.73400701  0.95151120  0.65585207    -0.19100
H3858       H  0.71694120  0.97177311  0.66487407     0.16600
F3859       F  0.68151365  0.96497366  0.63105825    -0.22800
H3860       H  0.69872098  0.94470593  0.62229265     0.18400
C3861       C  0.78712165  0.86280246  0.57961265    -0.26800
C3862       C  0.78021225  0.86238278  0.56611895     0.06800
C3863       C  0.76650195  0.86872647  0.56460305     0.26400
C3864       C  0.75995666  0.87557271  0.57638742    -0.11300
C3865       C  0.76695596  0.87614597  0.58984456    -0.25300
C3866       C  0.78055990  0.86956444  0.59139826     0.37200
C3867       C  0.78748854  0.85548736  0.55366915     0.06800
F3868       F  0.75958997  0.86855427  0.55166137    -0.19000
H3869       H  0.74935606  0.88031797  0.57503234     0.16600
F3870       F  0.78765678  0.86993086  0.60423840    -0.22800
H3871       H  0.79762887  0.85785124  0.58101436     0.18400
C3872       C  0.80137537  0.85995518  0.54946540     0.26400
C3873       C  0.80828985  0.85331029  0.53781023    -0.11300
C3874       C  0.80157030  0.84196920  0.53021349    -0.25300
C3875       C  0.78759764  0.83752980  0.53444042     0.37300
C3876       C  0.78064873  0.84429711  0.54602488    -0.26900
F3877       F  0.80818818  0.87088258  0.55654227    -0.19100
H3878       H  0.81902298  0.85693656  0.53486979     0.16600
F3879       F  0.78060266  0.82666360  0.52743766    -0.22800
H3880       H  0.76997814  0.84065318  0.54918143     0.18400
C3881       C  0.73843844  0.92407854  0.57691722    -0.26800
C3882       C  0.75094630  0.92833544  0.56939785     0.06800
C3883       C  0.76397441  0.92094621  0.57220432     0.26400
C3884       C  0.76457759  0.91026990  0.58289276    -0.11300
C3885       C  0.75213809  0.90629656  0.59058734    -0.25300
C3886       C  0.73892939  0.91290811  0.58708682     0.37200
C3887       C  0.75043393  0.94057031  0.55889952     0.06800
F3888       F  0.77613636  0.92394924  0.56457669    -0.19000
H3889       H  0.77483880  0.90522936  0.58533521     0.16600
F3890       F  0.72651233  0.90866177  0.59362093    -0.22800
H3891       H  0.72826788  0.92955535  0.57515133     0.18400
C3892       C  0.73876269  0.94222685  0.54921936     0.26400
C3893       C  0.73868623  0.95359283  0.53925245    -0.11300
C3894       C  0.75022669  0.96340440  0.53864732    -0.25300
C3895       C  0.76176205  0.96197262  0.54834308     0.37300
C3896       C  0.76176030  0.95077209  0.55848958    -0.26900
F3897       F  0.72766521  0.93261222  0.54897239    -0.19100
H3898       H  0.72974231  0.95459734  0.53176368     0.16600
F3899       F  0.77315708  0.97122321  0.54775295    -0.22800
H3900       H  0.77067481  0.95008712  0.56603194     0.18400
C3901       C  0.71208451  0.91977219  0.36595603    -0.26800
C3902       C  0.71784318  0.93381929  0.36667097     0.06800
C3903       C  0.73088780  0.93607592  0.37418664     0.26400
C3904       C  0.73811338  0.92439019  0.38058779    -0.11300
C3905       C  0.73244789  0.91029875  0.37962563    -0.25300
C3906       C  0.71931889  0.90811537  0.37227837     0.37200
C3907       C  0.71025632  0.94586503  0.35923830     0.06800
F3908       F  0.73660499  0.94956663  0.37538917    -0.19000
H3909       H  0.74831734  0.92631355  0.38598395     0.16600
F3910       F  0.71345018  0.89467750  0.37122125    -0.22800
H3911       H  0.70208275  0.91777538  0.36020284     0.18400
C3912       C  0.71744870  0.95454235  0.34903189     0.26400
C3913       C  0.70995017  0.96526393  0.34145319    -0.11300
C3914       C  0.69513285  0.96760516  0.34386620    -0.25300
C3915       C  0.68795498  0.95895131  0.35416949     0.37300
C3916       C  0.69546747  0.94817694  0.36170281    -0.26900
F3917       F  0.73160073  0.95229399  0.34595707    -0.19100
H3918       H  0.71578187  0.97170492  0.33359596     0.16600
F3919       F  0.67362095  0.96060289  0.35674081    -0.22800
H3920       H  0.68969997  0.94154296  0.36945204     0.18400
C3921       C  0.78225204  0.86356792  0.42038889    -0.26800
C3922       C  0.77655130  0.86393158  0.43441553     0.06800
C3923       C  0.76346709  0.87123292  0.43689167     0.26400
C3924       C  0.75621222  0.87799748  0.42542244    -0.11300
C3925       C  0.76186153  0.87749575  0.41132921    -0.25300
C3926       C  0.77495766  0.87016017  0.40892815     0.37200
C3927       C  0.78449116  0.85673383  0.44631227     0.06800
F3928       F  0.75779764  0.87191746  0.45039949    -0.19000
H3929       H  0.74601896  0.88332664  0.42750486     0.16600
F3930       F  0.78079531  0.86946291  0.39549047    -0.22800
H3931       H  0.79232215  0.85799454  0.41829148     0.18400
C3932       C  0.77848622  0.84491514  0.45375689     0.26400
C3933       C  0.78650237  0.83772955  0.46441311    -0.11300
C3934       C  0.80061440  0.84225343  0.46792450    -0.25300
C3935       C  0.80652003  0.85421048  0.46047515     0.37300
C3936       C  0.79854122  0.86126438  0.44973981    -0.26900
F3937       F  0.76505189  0.84004753  0.45040657    -0.19100
H3938       H  0.78164190  0.82858375  0.46990391     0.16600
F3939       F  0.82009700  0.85898541  0.46332453    -0.22800
H3940       H  0.80335838  0.87030498  0.44402991     0.18400
C3941       C  0.75960005  0.92403096  0.42590141    -0.26800
C3942       C  0.74639309  0.92932522  0.43120823     0.06800
C3943       C  0.73342325  0.92373485  0.42549982     0.26400
C3944       C  0.73374718  0.91295987  0.41487733    -0.11300
C3945       C  0.74694662  0.90765938  0.40967897    -0.25300
C3946       C  0.75989370  0.91332391  0.41521680     0.37200
C3947       C  0.74632536  0.94087299  0.44240898     0.06800
F3948       F  0.72045291  0.92900070  0.42983159    -0.19000
H3949       H  0.72368803  0.90877568  0.41058793     0.16600
F3950       F  0.77279541  0.90875314  0.41000097    -0.22800
H3951       H  0.76972379  0.92820199  0.43005863     0.18400
C3952       C  0.73783900  0.93961204  0.45497785     0.26400
C3953       C  0.73806827  0.95053403  0.46545977    -0.11300
C3954       C  0.74698432  0.96274521  0.46379170    -0.25300
C3955       C  0.75550268  0.96398400  0.45126943     0.37300
C3956       C  0.75511705  0.95317672  0.44068923    -0.26900
F3957       F  0.72971636  0.92760455  0.45738726    -0.19100
H3958       H  0.73143595  0.94937129  0.47503357     0.16600
F3959       F  0.76435460  0.97556366  0.44937730    -0.22800
H3960       H  0.76172620  0.95441265  0.43110932     0.18400
loop_ 
_geom_bond_atom_site_label_1 
_geom_bond_atom_site_label_2 
_geom_bond_distance 
_geom_bond_site_symmetry_2 
_ccdc_geom_bond_type 
N1            C5   1.359       .  A
N1            C2   1.359       .  A
N1         C3945   1.440       .  S
C2            C3   1.384       .  A
C2         C3925   1.486       .  S
C3            C4   1.375       .  A
C3            H6   1.082       .  S
C4            C5   1.383       .  A
C4            H7   1.082       .  S
C5         C3905   1.485       .  S
N8           C12   1.359       .  A
N8            C9   1.359       .  A
N8         C3885   1.443       .  S
C9           C10   1.383       .  A
C9         C3865   1.482       .  S
C10          C11   1.376       .  A
C10          H13   1.082       .  S
C11          C12   1.382       .  A
C11          H14   1.082       .  S
C12        C3845   1.482       .  S
N15          C19   1.357       .  A
N15          C16   1.357       .  A
N15        C3834   1.438       .  S
C16          C17   1.383       .  A
C16        C3794   1.482       .  S
C17          C18   1.378       .  A
C17          H20   1.082       .  S
C18          C19   1.383       .  A
C18          H21   1.082       .  S
C19        C3805   1.482       .  S
N22          C26   1.353       .  A
N22          C23   1.357       .  A
N22        C3765   1.437       .  S
C23          C24   1.386       .  A
C23        C3725   1.486       .  S
C24          C25   1.380       .  A
C24          H27   1.082       .  S
C25          C26   1.381       .  A
C25          H28   1.082       .  S
C26        C3745   1.477       .  S
N29          C34   1.353   1_545  A
N29          C33   1.352       .  A
N29          H61   1.041       .  S
N30          C37   1.350       .  A
N30          C38   1.351       .  A
N31          C36   1.351   1_545  A
N31          C35   1.353       .  A
N31          H62   1.039       .  S
N32          C39   1.352       .  A
N32          C40   1.350       .  A
C33          C41   1.387       .  A
C33          C49   1.413       .  A
C34          C50   1.413       .  A
C34          C42   1.386       .  A
C35          C43   1.387       .  A
C35          C52   1.413       .  A
C36          C51   1.413       .  A
C36          C44   1.387       .  A
C37          C49   1.413       .  A
C37          C45   1.387       .  A
C38          C52   1.411       .  A
C38          C46   1.386       .  A
C39          C47   1.386       .  A
C39          C50   1.413       .  A
C40          C48   1.386       .  A
C40          C51   1.411       .  A
C41          C42   1.376   1_545  A
C41          H53   1.082       .  S
C42          H54   1.082       .  S
C43          C44   1.377   1_545  A
C43          H55   1.082       .  S
C44          H56   1.082       .  S
C45          C46   1.373       .  A
C45          H57   1.082       .  S
C46          H58   1.082       .  S
C47          C48   1.372       .  A
C47          H59   1.082       .  S
C48          H60   1.082       .  S
C49        C3825   1.484       .  S
C50        C3954   1.493       .  S
C51        C3894   1.481       .  S
C52        C3774   1.482       .  S
N63          C67   1.353       .  A
N63          C64   1.354       .  A
N63        C3705   1.438       .  S
C64          C65   1.384       .  A
C64        C3674   1.481       .  S
C65          C66   1.381       .  A
C65          H68   1.082       .  S
C66          C67   1.383       .  A
C66          H69   1.082       .  S
C67        C3685   1.477       .  S
N70          C74   1.353       .  A
N70          C71   1.355       .  A
N70        C3645   1.434       .  S
C71          C72   1.383       .  A
C71        C3605   1.481       .  S
C72          C73   1.380       .  A
C72          H75   1.082       .  S
C73          C74   1.382       .  A
C73          H76   1.082       .  S
C74        C3625   1.477       .  S
N77          C81   1.360       .  A
N77          C78   1.358       .  A
N77        C3594   1.437       .  S
C78          C79   1.382       .  A
C78        C3545   1.487       .  S
C79          C80   1.378       .  A
C79          H82   1.082       .  S
C80          C81   1.386       .  A
C80          H83   1.082       .  S
C81        C3565   1.493       .  S
N84          C88   1.359       .  A
N84          C85   1.354       .  A
N84        C3525   1.436       .  S
C85          C86   1.380       .  A
C85        C3494   1.477       .  S
C86          C87   1.377       .  A
C86          H89   1.082       .  S
C87          C88   1.386       .  A
C87          H90   1.082       .  S
C88        C3505   1.490       .  S
N91          C96   1.354       .  A
N91          C95   1.353       .  A
N91         H123   1.039       .  S
N92          C99   1.351   1_455  A
N92         C100   1.351       .  A
N93          C98   1.353       .  A
N93          C97   1.352       .  A
N93         H124   1.038       .  S
N94         C101   1.351   1_455  A
N94         C102   1.350       .  A
C95         C103   1.387       .  A
C95         C111   1.417       .  A
C96         C112   1.416       .  A
C96         C104   1.387       .  A
C97         C105   1.388       .  A
C97         C114   1.413       .  A
C98         C113   1.413       .  A
C98         C106   1.387       .  A
C99         C111   1.415       .  A
C99         C107   1.387       .  A
C100        C114   1.412       .  A
C100        C108   1.385       .  A
C101        C109   1.387       .  A
C101        C112   1.412       .  A
C102        C110   1.386       .  A
C102        C113   1.411       .  A
C103        C104   1.374       .  A
C103        H115   1.082       .  S
C104        H116   1.081       .  S
C105        C106   1.375       .  A
C105        H117   1.082       .  S
C106        H118   1.082       .  S
C107        C108   1.375   1_655  A
C107        H119   1.082       .  S
C108        H120   1.082       .  S
C109        C110   1.371   1_655  A
C109        H121   1.082       .  S
C110        H122   1.082       .  S
C111       C3714   1.491       .  S
C112       C3654   1.486       .  S
C113       C3534   1.481       .  S
C114       C3585   1.480       .  S
N125        C129   1.357       .  A
N125        C126   1.356       .  A
N125       C3465   1.442       .  S
C126        C127   1.381       .  A
C126       C3425   1.475       .  S
C127        C128   1.377       .  A
C127        H130   1.082       .  S
C128        C129   1.384       .  A
C128        H131   1.082       .  S
C129       C3445   1.481       .  S
N132        C136   1.360       .  A
N132        C133   1.359       .  A
N132       C3405   1.444       .  S
C133        C134   1.383       .  A
C133       C3374   1.482       .  S
C134        C135   1.376       .  A
C134        H137   1.082       .  S
C135        C136   1.384       .  A
C135        H138   1.082       .  S
C136       C3394   1.486       .  S
N139        C143   1.356       .  A
N139        C140   1.360       .  A
N139       C3354   1.440       .  S
C140        C141   1.387       .  A
C140       C3325   1.490       .  S
C141        C142   1.376       .  A
C141        H144   1.082       .  S
C142        C143   1.381       .  A
C142        H145   1.082       .  S
C143       C3305   1.479       .  S
N146        C150   1.353       .  A
N146        C147   1.353       .  A
N146       C3285   1.438       .  S
C147        C148   1.384       .  A
C147       C3274   1.477       .  S
C148        C149   1.380       .  A
C148        H151   1.082       .  S
C149        C150   1.381       .  A
C149        H152   1.082       .  S
C150       C3245   1.472       .  S
N153        C158   1.354       .  A
N153        C157   1.355   1_565  A
N153        H185   1.038       .  S
N154        C161   1.351       .  A
N154        C162   1.351       .  A
N155        C160   1.352       .  A
N155        C159   1.353   1_565  A
N155        H186   1.038       .  S
N156        C163   1.352       .  A
N156        C164   1.352       .  A
C157        C165   1.387       .  A
C157        C173   1.416       .  A
C158        C174   1.418       .  A
C158        C166   1.387       .  A
C159        C167   1.387       .  A
C159        C176   1.415       .  A
C160        C175   1.414       .  A
C160        C168   1.387       .  A
C161        C173   1.412       .  A
C161        C169   1.386       .  A
C162        C176   1.412       .  A
C162        C170   1.386       .  A
C163        C171   1.387       .  A
C163        C174   1.415       .  A
C164        C172   1.385       .  A
C164        C175   1.413       .  A
C165        C166   1.376   1_545  A
C165        H177   1.082       .  S
C166        H178   1.082       .  S
C167        C168   1.375   1_545  A
C167        H179   1.082       .  S
C168        H180   1.082       .  S
C169        C170   1.373       .  A
C169        H181   1.082       .  S
C170        H182   1.082       .  S
C171        C172   1.372       .  A
C171        H183   1.082       .  S
C172        H184   1.082       .  S
C173       C3345   1.485       .  S
C174       C3474   1.490       .  S
C175       C3414   1.484       .  S
C176       C3294   1.482       .  S
N187        C191   1.354       .  A
N187        C188   1.357       .  A
N187       C3225   1.436       .  S
C188        C189   1.385       .  A
C188       C3205   1.487       .  S
C189        C190   1.379       .  A
C189        H192   1.082       .  S
C190        C191   1.382       .  A
C190        H193   1.082       .  S
C191       C3185   1.480       .  S
N194        C198   1.356       .  A
N194        C195   1.355       .  A
N194       C3165   1.437       .  S
C195        C196   1.383       .  A
C195       C3145   1.484       .  S
C196        C197   1.381       .  A
C196        H199   1.082       .  S
C197        C198   1.383       .  A
C197        H200   1.082       .  S
C198       C3125   1.482       .  S
N201        C205   1.356       .  A
N201        C202   1.355       .  A
N201       C3114   1.438       .  S
C202        C203   1.382       .  A
C202       C3094   1.478       .  S
C203        C204   1.378       .  A
C203        H206   1.082       .  S
C204        C205   1.383       .  A
C204        H207   1.082       .  S
C205       C3065   1.480       .  S
N208        C212   1.354       .  A
N208        C209   1.358       .  A
N208       C3045   1.437       .  S
C209        C210   1.386       .  A
C209       C3025   1.486       .  S
C210        C211   1.379       .  A
C210        H213   1.082       .  S
C211        C212   1.380       .  A
C211        H214   1.082       .  S
C212       C3005   1.476       .  S
N215        C220   1.352       .  A
N215        C219   1.353   1_565  A
N215        H247   1.035       .  S
N216        C223   1.351       .  A
N216        C224   1.350       .  A
N217        C222   1.351       .  A
N217        C221   1.352   1_565  A
N217        H248   1.037       .  S
N218        C225   1.351       .  A
N218        C226   1.352       .  A
C219        C227   1.387       .  A
C219        C235   1.415       .  A
C220        C236   1.415       .  A
C220        C228   1.388       .  A
C221        C229   1.386       .  A
C221        C238   1.410       .  A
C222        C237   1.415       .  A
C222        C230   1.388       .  A
C223        C235   1.411       .  A
C223        C231   1.386       .  A
C224        C238   1.411       .  A
C224        C232   1.386       .  A
C225        C233   1.386       .  A
C225        C236   1.413       .  A
C226        C234   1.387       .  A
C226        C237   1.415       .  A
C227        C228   1.375   1_545  A
C227        H239   1.082       .  S
C228        H240   1.082       .  S
C229        C230   1.375   1_545  A
C229        H241   1.082       .  S
C230        H242   1.082       .  S
C231        C232   1.373       .  A
C231        H243   1.082       .  S
C232        H244   1.082       .  S
C233        C234   1.373       .  A
C233        H245   1.082       .  S
C234        H246   1.082       .  S
C235       C3105   1.481       .  S
C236       C3234   1.481       .  S
C237       C3174   1.487       .  S
C238       C3054   1.480       .  S
N249        C253   1.356       .  A
N249        C250   1.359       .  A
N249       C2985   1.439       .  S
C250        C251   1.386       .  A
C250       C2965   1.489       .  S
C251        C252   1.379       .  A
C251        H254   1.082       .  S
C252        C253   1.380       .  A
C252        H255   1.082       .  S
C253       C2945   1.481       .  S
N256        C260   1.351       .  A
N256        C257   1.355       .  A
N256       C2925   1.432       .  S
C257        C258   1.385       .  A
C257       C2905   1.485       .  S
C258        C259   1.381       .  A
C258        H261   1.082       .  S
C259        C260   1.381       .  A
C259        H262   1.082       .  S
C260       C2885   1.475       .  S
N263        C267   1.355       .  A
N263        C264   1.354       .  A
N263       C2865   1.443       .  S
C264        C265   1.383       .  A
C264       C2845   1.475       .  S
C265        C266   1.378       .  A
C265        H268   1.082       .  S
C266        C267   1.382       .  A
C266        H269   1.082       .  S
C267       C2825   1.474       .  S
N270        C274   1.361       .  A
N270        C271   1.361       .  A
N270       C2814   1.439       .  S
C271        C272   1.383       .  A
C271       C2785   1.489       .  S
C272        C273   1.375       .  A
C272        H275   1.082       .  S
C273        C274   1.384       .  A
C273        H276   1.082       .  S
C274       C2774   1.491       .  S
N277        C282   1.353       .  A
N277        C281   1.355       .  A
N277        H309   1.036       .  S
N278        C285   1.353       .  A
N278        C286   1.352   1_556  A
N279        C284   1.355       .  A
N279        C283   1.353       .  A
N279        H310   1.037       .  S
N280        C287   1.351       .  A
N280        C288   1.352   1_556  A
C281        C289   1.388       .  A
C281        C297   1.419       .  A
C282        C298   1.415       .  A
C282        C290   1.387       .  A
C283        C291   1.387       .  A
C283        C300   1.415       .  A
C284        C299   1.419       .  A
C284        C292   1.387       .  A
C285        C297   1.417       .  A
C285        C293   1.388       .  A
C286        C300   1.414       .  A
C286        C294   1.386       .  A
C287        C295   1.386       .  A
C287        C298   1.412       .  A
C288        C296   1.387       .  A
C288        C299   1.415       .  A
C289        C290   1.372       .  A
C289        H301   1.081       .  S
C290        H302   1.082       .  S
C291        C292   1.374       .  A
C291        H303   1.082       .  S
C292        H304   1.082       .  S
C293        C294   1.370   1_556  A
C293        H305   1.082       .  S
C294        H306   1.082       .  S
C295        C296   1.371   1_556  A
C295        H307   1.083       .  S
C296        H308   1.082       .  S
C297       C2934   1.488       .  S
C298       C2994   1.480       .  S
C299       C2874   1.491       .  S
C300       C2805   1.483       .  S
N311        C315   1.355       .  A
N311        C312   1.355       .  A
N311       C2754   1.439       .  S
C312        C313   1.383       .  A
C312       C2725   1.479       .  S
C313        C314   1.379       .  A
C313        H316   1.082       .  S
C314        C315   1.383       .  A
C314        H317   1.082       .  S
C315       C2705   1.479       .  S
N318        C322   1.354       .  A
N318        C319   1.354       .  A
N318       C2685   1.435       .  S
C319        C320   1.383       .  A
C319       C2665   1.478       .  S
C320        C321   1.380       .  A
C320        H323   1.082       .  S
C321        C322   1.383       .  A
C321        H324   1.082       .  S
C322       C2645   1.479       .  S
N325        C329   1.353       .  A
N325        C326   1.349       .  A
N325       C2634   1.435       .  S
C326        C327   1.381       .  A
C326       C2605   1.471       .  S
C327        C328   1.382       .  A
C327        H330   1.082       .  S
C328        C329   1.385       .  A
C328        H331   1.082       .  S
C329       C2585   1.479       .  S
N332        C336   1.355       .  A
N332        C333   1.357       .  A
N332       C2565   1.443       .  S
C333        C334   1.383       .  A
C333       C2545   1.478       .  S
C334        C335   1.377       .  A
C334        H337   1.082       .  S
C335        C336   1.382       .  A
C335        H338   1.082       .  S
C336       C2525   1.475       .  S
N339        C344   1.355       .  A
N339        C343   1.353       .  A
N339        H371   1.039       .  S
N340        C347   1.353       .  A
N340        C348   1.354   1_565  A
N341        C346   1.353       .  A
N341        C345   1.355       .  A
N341        H372   1.034       .  S
N342        C349   1.351       .  A
N342        C350   1.350   1_565  A
C343        C351   1.387       .  A
C343        C359   1.415       .  A
C344        C360   1.417       .  A
C344        C352   1.387       .  A
C345        C353   1.390       .  A
C345        C362   1.423       .  A
C346        C361   1.415       .  A
C346        C354   1.386       .  A
C347        C359   1.417       .  A
C347        C355   1.385       .  A
C348        C362   1.421       .  A
C348        C356   1.388       .  A
C349        C357   1.387       .  A
C349        C360   1.414       .  A
C350        C358   1.385       .  A
C350        C361   1.410       .  A
C351        C352   1.375       .  A
C351        H363   1.082       .  S
C352        H364   1.082       .  S
C353        C354   1.370       .  A
C353        H365   1.081       .  S
C354        H366   1.082       .  S
C355        C356   1.371   1_565  A
C355        H367   1.082       .  S
C356        H368   1.081       .  S
C357        C358   1.372   1_565  A
C357        H369   1.082       .  S
C358        H370   1.082       .  S
C359       C2694   1.489       .  S
C360       C2745   1.493       .  S
C361       C2625   1.479       .  S
C362       C2574   1.493       .  S
N373        C377   1.355       .  A
N373        C374   1.355       .  A
N373       C2505   1.439       .  S
C374        C375   1.382       .  A
C374       C2465   1.476       .  S
C375        C376   1.378       .  A
C375        H378   1.082       .  S
C376        C377   1.384       .  A
C376        H379   1.082       .  S
C377       C2485   1.482       .  S
N380        C384   1.356       .  A
N380        C381   1.352       .  A
N380       C2445   1.436       .  S
C381        C382   1.380       .  A
C381       C2414   1.473       .  S
C382        C383   1.377       .  A
C382        H385   1.082       .  S
C383        C384   1.386       .  A
C383        H386   1.082       .  S
C384       C2425   1.484       .  S
N387        C391   1.353       .  A
N387        C388   1.349       .  A
N387       C2394   1.439       .  S
C388        C389   1.381       .  A
C388       C2345   1.466       .  S
C389        C390   1.379       .  A
C389        H392   1.082       .  S
C390        C391   1.384       .  A
C390        H393   1.082       .  S
C391       C2365   1.473       .  S
N394        C398   1.354       .  A
N394        C395   1.353       .  A
N394       C2325   1.441       .  S
C395        C396   1.381       .  A
C395       C2305   1.473       .  S
C396        C397   1.379       .  A
C396        H399   1.082       .  S
C397        C398   1.384       .  A
C397        H400   1.082       .  S
C398       C2294   1.475       .  S
N401        C406   1.353   1_554  A
N401        C405   1.353       .  A
N401        H433   1.041       .  S
N402        C409   1.351       .  A
N402        C410   1.351       .  A
N403        C408   1.355       .  A
N403        C407   1.352   1_556  A
N403        H434   1.042   1_556  S
N404        C411   1.350       .  A
N404        C412   1.351       .  A
C405        C413   1.386       .  A
C405        C421   1.412       .  A
C406        C422   1.415       .  A
C406        C414   1.388       .  A
C407        C415   1.385       .  A
C407        C424   1.412       .  A
C408        C423   1.418       .  A
C408        C416   1.388       .  A
C409        C421   1.409       .  A
C409        C417   1.385       .  A
C410        C424   1.413       .  A
C410        C418   1.387       .  A
C411        C419   1.386       .  A
C411        C422   1.412       .  A
C412        C420   1.387       .  A
C412        C423   1.414       .  A
C413        C414   1.376   1_554  A
C413        H425   1.082       .  S
C414        H426   1.082       .  S
C415        C416   1.376   1_554  A
C415        H427   1.082       .  S
C416        H428   1.082       .  S
C417        C418   1.374       .  A
C417        H429   1.082       .  S
C418        H430   1.082       .  S
C419        C420   1.374       .  A
C419        H431   1.082       .  S
C420        H432   1.082       .  S
C421       C2385   1.483       .  S
C422       C2514   1.488       .  S
C423       C2454   1.500       .  S
C424       C2334   1.488       .  S
N435        C439   1.352       .  A
N435        C436   1.353       .  A
N435       C2265   1.437       .  S
C436        C437   1.385       .  A
C436       C2225   1.478       .  S
C437        C438   1.379       .  A
C437        H440   1.082       .  S
C438        C439   1.381       .  A
C438        H441   1.082       .  S
C439       C2245   1.474       .  S
N442        C446   1.358       .  A
N442        C443   1.358       .  A
N442       C2205   1.442       .  S
C443        C444   1.382       .  A
C443       C2185   1.482       .  S
C444        C445   1.378       .  A
C444        H447   1.082       .  S
C445        C446   1.383       .  A
C445        H448   1.082       .  S
C446       C2165   1.482       .  S
N449        C453   1.355       .  A
N449        C450   1.355       .  A
N449       C2154   1.442       .  S
C450        C451   1.383       .  A
C450       C2114   1.474       .  S
C451        C452   1.378       .  A
C451        H454   1.082       .  S
C452        C453   1.382       .  A
C452        H455   1.082       .  S
C453       C2134   1.475       .  S
N456        C460   1.358       .  A
N456        C457   1.358       .  A
N456       C2094   1.438       .  S
C457        C458   1.384       .  A
C457       C2065   1.486       .  S
C458        C459   1.378       .  A
C458        H461   1.082       .  S
C459        C460   1.383       .  A
C459        H462   1.082       .  S
C460       C2054   1.485       .  S
N463        C468   1.356   1_556  A
N463        C467   1.354       .  A
N463        H495   1.037       .  S
N464        C471   1.351       .  A
N464        C472   1.353       .  A
N465        C470   1.351   1_556  A
N465        C469   1.354       .  A
N465        H496   1.039       .  S
N466        C473   1.353       .  A
N466        C474   1.351       .  A
C467        C475   1.389       .  A
C467        C483   1.420       .  A
C468        C484   1.420       .  A
C468        C476   1.386       .  A
C469        C477   1.387       .  A
C469        C486   1.414       .  A
C470        C485   1.411       .  A
C470        C478   1.387       .  A
C471        C483   1.416       .  A
C471        C479   1.388       .  A
C472        C486   1.414       .  A
C472        C480   1.385       .  A
C473        C481   1.387       .  A
C473        C484   1.416       .  A
C474        C482   1.386       .  A
C474        C485   1.412       .  A
C475        C476   1.374   1_556  A
C475        H487   1.082       .  S
C476        H488   1.082       .  S
C477        C478   1.372   1_556  A
C477        H489   1.082       .  S
C478        H490   1.082       .  S
C479        C480   1.370       .  A
C479        H491   1.082       .  S
C480        H492   1.082       .  S
C481        C482   1.372       .  A
C481        H493   1.082       .  S
C482        H494   1.082       .  S
C483       C2274   1.485       .  S
C484       C2145   1.496       .  S
C485       C2085   1.478       .  S
C486       C2214   1.489       .  S
N497        C501   1.355       .  A
N497        C498   1.355       .  A
N497       C2025   1.437       .  S
C498        C499   1.382       .  A
C498       C2005   1.478       .  S
C499        C500   1.379       .  A
C499        H502   1.082       .  S
C500        C501   1.384       .  A
C500        H503   1.082       .  S
C501       C1985   1.481       .  S
N504        C508   1.360       .  A
N504        C505   1.360       .  A
N504       C1965   1.450       .  S
C505        C506   1.383       .  A
C505       C1945   1.478       .  S
C506        C507   1.373       .  A
C506        H509   1.082       .  S
C507        C508   1.382       .  A
C507        H510   1.082       .  S
C508       C1925   1.478       .  S
N511        C515   1.356       .  A
N511        C512   1.359       .  A
N511       C1914   1.440       .  S
C512        C513   1.385       .  A
C512       C1885   1.487       .  S
C513        C514   1.377       .  A
C513        H516   1.082       .  S
C514        C515   1.381       .  A
C514        H517   1.082       .  S
C515       C1874   1.480       .  S
N518        C522   1.360       .  A
N518        C519   1.359       .  A
N518       C1845   1.439       .  S
C519        C520   1.384       .  A
C519       C1834   1.488       .  S
C520        C521   1.377       .  A
C520        H523   1.082       .  S
C521        C522   1.383       .  A
C521        H524   1.082       .  S
C522       C1805   1.489       .  S
N525        C530   1.357       .  A
N525        C529   1.355       .  A
N525        H557   1.037       .  S
N526        C533   1.351       .  A
N526        C534   1.354   1_655  A
N527        C532   1.351       .  A
N527        C531   1.355       .  A
N527        H558   1.038       .  S
N528        C535   1.354       .  A
N528        C536   1.353   1_655  A
C529        C537   1.387       .  A
C529        C545   1.420       .  A
C530        C546   1.423       .  A
C530        C538   1.388       .  A
C531        C539   1.387       .  A
C531        C548   1.417       .  A
C532        C547   1.413       .  A
C532        C540   1.387       .  A
C533        C545   1.416       .  A
C533        C541   1.387       .  A
C534        C548   1.415       .  A
C534        C542   1.385       .  A
C535        C543   1.388       .  A
C535        C546   1.420       .  A
C536        C544   1.385       .  A
C536        C547   1.415       .  A
C537        C538   1.372       .  A
C537        H549   1.082       .  S
C538        H550   1.081       .  S
C539        C540   1.375       .  A
C539        H551   1.082       .  S
C540        H552   1.082       .  S
C541        C542   1.372   1_655  A
C541        H553   1.082       .  S
C542        H554   1.082       .  S
C543        C544   1.372   1_655  A
C543        H555   1.081       .  S
C544        H556   1.082       .  S
C545       C2034   1.492       .  S
C546       C1974   1.497       .  S
C547       C1854   1.481       .  S
C548       C1905   1.494       .  S
N559        C563   1.352       .  A
N559        C560   1.355       .  A
N559       C1785   1.432       .  S
C560        C561   1.385       .  A
C560       C1765   1.487       .  S
C561        C562   1.381       .  A
C561        H564   1.082       .  S
C562        C563   1.382       .  A
C562        H565   1.082       .  S
C563       C1754   1.481       .  S
N566        C570   1.352       .  A
N566        C567   1.352       .  A
N566       C1725   1.437       .  S
C567        C568   1.383       .  A
C567       C1685   1.474       .  S
C568        C569   1.380       .  A
C568        H571   1.082       .  S
C569        C570   1.382       .  A
C569        H572   1.082       .  S
C570       C1705   1.472       .  S
N573        C577   1.352       .  A
N573        C574   1.353       .  A
N573       C1674   1.434       .  S
C574        C575   1.384       .  A
C574       C1645   1.479       .  S
C575        C576   1.380       .  A
C575        H578   1.082       .  S
C576        C577   1.382       .  A
C576        H579   1.082       .  S
C577       C1625   1.476       .  S
N580        C584   1.359       .  A
N580        C581   1.361       .  A
N580       C1605   1.442       .  S
C581        C582   1.384       .  A
C581       C1574   1.488       .  S
C582        C583   1.376       .  A
C582        H585   1.082       .  S
C583        C584   1.382       .  A
C583        H586   1.082       .  S
C584       C1594   1.481       .  S
N587        C592   1.351   1_556  A
N587        C591   1.350       .  A
N587        H619   1.040       .  S
N588        C595   1.350       .  A
N588        C596   1.350       .  A
N589        C594   1.355   1_556  A
N589        C593   1.355       .  A
N589        H620   1.038       .  S
N590        C597   1.351       .  A
N590        C598   1.349       .  A
C591        C599   1.388       .  A
C591        C607   1.412       .  A
C592        C608   1.407       .  A
C592        C600   1.386       .  A
C593        C601   1.387       .  A
C593        C610   1.419       .  A
C594        C609   1.419       .  A
C594        C602   1.387   1_554  A
C595        C607   1.412       .  A
C595        C603   1.387       .  A
C596        C610   1.411       .  A
C596        C604   1.386       .  A
C597        C605   1.383       .  A
C597        C608   1.406       .  A
C598        C606   1.391       .  A
C598        C609   1.415       .  A
C599        C600   1.374   1_556  A
C599        H611   1.082       .  S
C600        H612   1.082       .  S
C601        C602   1.374       .  A
C601        H613   1.082       .  S
C602        H614   1.081   1_556  S
C603        C604   1.373       .  A
C603        H615   1.082       .  S
C604        H616   1.082       .  S
C605        C606   1.366       .  A
C605        H617   1.082       .  S
C606        H618   1.080       .  S
C607       C1794   1.480       .  S
C608       C1665   1.477       .  S
C609       C1614   1.483       .  S
C610       C1734   1.489       .  S
N621        C625   1.354       .  A
N621        C622   1.355       .  A
N621       C1545   1.440       .  S
C622        C623   1.384       .  A
C622       C1525   1.479       .  S
C623        C624   1.382       .  A
C623        H626   1.082       .  S
C624        C625   1.382       .  A
C624        H627   1.082       .  S
C625       C1505   1.477       .  S
N628        C632   1.354       .  A
N628        C629   1.355       .  A
N628       C1485   1.435       .  S
C629        C630   1.384       .  A
C629       C1465   1.482       .  S
C630        C631   1.378       .  A
C630        H633   1.082       .  S
C631        C632   1.382       .  A
C631        H634   1.082       .  S
C632       C1454   1.478       .  S
N635        C639   1.352       .  A
N635        C636   1.353       .  A
N635       C1425   1.442       .  S
C636        C637   1.382       .  A
C636       C1405   1.468       .  S
C637        C638   1.377       .  A
C637        H640   1.082       .  S
C638        C639   1.381       .  A
C638        H641   1.082       .  S
C639       C1394   1.467       .  S
N642        C646   1.360       .  A
N642        C643   1.361       .  A
N642       C1365   1.439       .  S
C643        C644   1.384       .  A
C643       C1345   1.491       .  S
C644        C645   1.378       .  A
C644        H647   1.082       .  S
C645        C646   1.383       .  A
C645        H648   1.082       .  S
C646       C1325   1.487       .  S
N649        C654   1.355       .  A
N649        C653   1.353       .  A
N649        H681   1.036       .  S
N650        C657   1.350   1_455  A
N650        C658   1.351       .  A
N651        C656   1.352       .  A
N651        C655   1.353       .  A
N651        H682   1.037       .  S
N652        C659   1.352   1_455  A
N652        C660   1.352       .  A
C653        C661   1.386       .  A
C653        C669   1.416       .  A
C654        C670   1.418       .  A
C654        C662   1.388       .  A
C655        C663   1.386       .  A
C655        C672   1.412       .  A
C656        C671   1.415       .  A
C656        C664   1.387       .  A
C657        C669   1.412       .  A
C657        C665   1.387       .  A
C658        C672   1.409       .  A
C658        C666   1.385       .  A
C659        C667   1.387       .  A
C659        C670   1.415       .  A
C660        C668   1.386       .  A
C660        C671   1.414       .  A
C661        C662   1.374       .  A
C661        H673   1.082       .  S
C662        H674   1.081       .  S
C663        C664   1.376       .  A
C663        H675   1.082       .  S
C664        H676   1.082       .  S
C665        C666   1.372   1_655  A
C665        H677   1.082       .  S
C666        H678   1.082       .  S
C667        C668   1.371   1_655  A
C667        H679   1.081       .  S
C668        H680   1.082       .  S
C669       C1554   1.486       .  S
C670       C1494   1.488       .  S
C671       C1374   1.487       .  S
C672       C1434   1.483       .  S
N683        C687   1.359       .  A
N683        C684   1.358       .  A
N683       C1305   1.440       .  S
C684        C685   1.382       .  A
C684       C1265   1.483       .  S
C685        C686   1.377       .  A
C685        H688   1.082       .  S
C686        C687   1.384       .  A
C686        H689   1.082       .  S
C687       C1285   1.485       .  S
N690        C694   1.360       .  A
N690        C691   1.361       .  A
N690       C1245   1.443       .  S
C691        C692   1.384       .  A
C691       C1205   1.488       .  S
C692        C693   1.375       .  A
C692        H695   1.082       .  S
C693        C694   1.382       .  A
C693        H696   1.082       .  S
C694       C1225   1.485       .  S
N697        C701   1.359       .  A
N697        C698   1.357       .  A
N697       C1185   1.444       .  S
C698        C699   1.382       .  A
C698       C1174   1.478       .  S
C699        C700   1.376       .  A
C699        H702   1.082       .  S
C700        C701   1.383       .  A
C700        H703   1.082       .  S
C701       C1154   1.483       .  S
N704        C708   1.357       .  A
N704        C705   1.357       .  A
N704       C1134   1.436       .  S
C705        C706   1.384       .  A
C705       C1105   1.485       .  S
C706        C707   1.380       .  A
C706        H709   1.082       .  S
C707        C708   1.383       .  A
C707        H710   1.082       .  S
C708       C1094   1.487       .  S
N711        C716   1.352       .  A
N711        C715   1.353       .  A
N711        H743   1.039       .  S
N712        C719   1.349   1_455  A
N712        C720   1.350       .  A
N713        C718   1.352       .  A
N713        C717   1.353       .  A
N713        H744   1.039       .  S
N714        C721   1.351       .  A
N714        C722   1.351   1_655  A
C715        C723   1.387       .  A
C715        C731   1.413       .  A
C716        C732   1.414       .  A
C716        C724   1.387       .  A
C717        C725   1.387       .  A
C717        C734   1.413       .  A
C718        C733   1.412       .  A
C718        C726   1.387       .  A
C719        C731   1.409       .  A
C719        C727   1.386       .  A
C720        C734   1.411       .  A
C720        C728   1.386       .  A
C721        C729   1.387       .  A
C721        C732   1.414       .  A
C722        C730   1.386       .  A
C722        C733   1.411       .  A
C723        C724   1.375       .  A
C723        H735   1.082       .  S
C724        H736   1.082       .  S
C725        C726   1.374       .  A
C725        H737   1.082       .  S
C726        H738   1.082       .  S
C727        C728   1.373   1_655  A
C727        H739   1.082       .  S
C728        H740   1.082       .  S
C729        C730   1.374   1_655  A
C729        H741   1.082       .  S
C730        H742   1.082       .  S
C731       C1314   1.479       .  S
C732       C1254   1.487       .  S
C733       C1125   1.479       .  S
C734       C1194   1.484       .  S
O745       Ni753   1.930       .  S
O745        C755   1.284       .  A
O746       Ni753   1.926   1_655  S
O746        C756   1.283       .  A
O747       Ni753   1.921   1_655  S
O747        C757   1.282       .  A
O748       Ni753   1.918       .  S
O748        C758   1.281       .  A
O749       Ni754   1.907       .  S
O749        C758   1.280       .  A
O750       Ni754   1.909   1_655  S
O750        C757   1.280       .  A
O751       Ni754   1.916   1_655  S
O751        C756   1.282       .  A
O752       Ni754   1.908       .  S
O752        C755   1.280       .  A
Ni753      Ni754   2.387       .  S
C755       C1145   1.484       .  S
C756       C1514   1.489       .  S
C757       C1274   1.473       .  S
C758       C1385   1.473       .  S
O759       Ni767   1.917       .  S
O759        C769   1.281       .  A
O760       Ni767   1.914       .  S
O760        C770   1.281       .  A
O761       Ni767   1.915       .  S
O761        C771   1.281       .  A
O762       Ni767   1.921       .  S
O762        C772   1.283       .  A
O763       Ni768   1.918       .  S
O763        C772   1.282       .  A
O764       Ni768   1.921       .  S
O764        C771   1.283       .  A
O765       Ni768   1.923       .  S
O765        C770   1.282       .  A
O766       Ni768   1.926       .  S
O766        C769   1.283       .  A
Ni767      Ni768   2.385       .  S
C769       C1294   1.482       .  S
C770       C3754   1.480       .  S
C771       C1234   1.485       .  S
C772       C3814   1.488       .  S
O773       Ni781   1.916       .  S
O773        C783   1.282       .  A
O774       Ni781   1.912       .  S
O774        C784   1.280       .  A
O775       Ni781   1.907       .  S
O775        C785   1.280       .  A
O776       Ni781   1.908       .  S
O776        C786   1.280       .  A
O777       Ni782   1.920       .  S
O777        C786   1.283       .  A
O778       Ni782   1.922       .  S
O778        C785   1.281       .  A
O779       Ni782   1.920       .  S
O779        C784   1.282       .  A
O780       Ni782   1.917       .  S
O780        C783   1.281       .  A
Ni781      Ni782   2.387       .  S
C783       C3334   1.481       .  S
C784       C1114   1.477       .  S
C785       C3265   1.472       .  S
C786       C1165   1.482       .  S
O787       Ni795   1.928       .  S
O787        C797   1.284       .  A
O788       Ni795   1.926       .  S
O788        C798   1.284       .  A
O789       Ni795   1.907       .  S
O789        C799   1.280       .  A
O790       Ni795   1.908       .  S
O790        C800   1.279       .  A
O791       Ni796   1.930       .  S
O791        C800   1.285       .  A
O792       Ni796   1.928       .  S
O792        C799   1.284       .  A
O793       Ni796   1.907       .  S
O793        C798   1.279       .  A
O794       Ni796   1.907       .  S
O794        C797   1.279       .  A
Ni795      Ni796   2.384       .  S
C797       C1474   1.486       .  S
C798       C1654   1.479       .  S
C799       C1534   1.486       .  S
C800       C1585   1.487       .  S
O801       Ni809   1.918       .  S
O801        C811   1.282       .  A
O802       Ni809   1.916       .  S
O802        C812   1.281       .  A
O803       Ni809   1.913       .  S
O803        C813   1.281       .  A
O804       Ni809   1.923       .  S
O804        C814   1.283       .  A
O805       Ni810   1.924       .  S
O805        C814   1.283       .  A
O806       Ni810   1.925       .  S
O806        C813   1.283       .  A
O807       Ni810   1.918       .  S
O807        C812   1.281       .  A
O808       Ni810   1.920       .  S
O808        C811   1.281       .  A
Ni809      Ni810   2.386       .  S
C811       C2074   1.480       .  S
C812       C1414   1.476       .  S
C813       C2125   1.487       .  S
C814       C1354   1.491       .  S
O815       Ni823   1.916       .  S
O815        C825   1.282       .  A
O816       Ni823   1.922   1_554  S
O816        C826   1.283       .  A
O817       Ni823   1.916   1_554  S
O817        C827   1.281       .  A
O818       Ni823   1.914       .  S
O818        C828   1.280       .  A
O819       Ni824   1.913       .  S
O819        C828   1.280       .  A
O820       Ni824   1.912   1_554  S
O820        C827   1.280       .  A
O821       Ni824   1.914   1_554  S
O821        C826   1.281       .  A
O822       Ni824   1.922       .  S
O822        C825   1.283       .  A
Ni823      Ni824   2.388       .  S
C825       C1745   1.486       .  S
C826       C2285   1.486       .  S
C827       C1634   1.474       .  S
C828       C2405   1.468       .  S
O829       Ni837   1.924       .  S
O829        C839   1.283       .  A
O830       Ni837   1.922       .  S
O830        C840   1.283       .  A
O831       Ni837   1.906       .  S
O831        C841   1.279       .  A
O832       Ni837   1.903       .  S
O832        C842   1.279       .  A
O833       Ni838   1.928       .  S
O833        C842   1.284       .  A
O834       Ni838   1.930       .  S
O834        C841   1.285       .  A
O835       Ni838   1.916       .  S
O835        C840   1.281       .  A
O836       Ni838   1.916       .  S
O836        C839   1.281       .  A
Ni837      Ni838   2.384       .  S
C839       C1954   1.485       .  S
C840       C1774   1.485       .  S
C841       C2014   1.487       .  S
C842       C1714   1.484       .  S
O843       Ni851   1.914       .  S
O843        C853   1.280       .  A
O844       Ni851   1.911   1_655  S
O844        C854   1.280       .  A
O845       Ni851   1.924   1_655  S
O845        C855   1.283       .  A
O846       Ni851   1.923       .  S
O846        C856   1.284       .  A
O847       Ni852   1.915       .  S
O847        C856   1.281       .  A
O848       Ni852   1.919   1_655  S
O848        C855   1.282       .  A
O849       Ni852   1.928   1_655  S
O849        C854   1.284       .  A
O850       Ni852   1.934       .  S
O850        C853   1.284       .  A
Ni851      Ni852   2.385       .  S
C853       C1085   1.483       .  S
C854       C1994   1.486       .  S
C855       C1214   1.487       .  S
C856       C1865   1.486       .  S
O857       Ni865   1.907       .  S
O857        C867   1.279       .  A
O858       Ni865   1.912       .  S
O858        C868   1.280       .  A
O859       Ni865   1.922       .  S
O859        C869   1.282       .  A
O860       Ni865   1.914       .  S
O860        C870   1.281       .  A
O861       Ni866   1.924       .  S
O861        C870   1.283       .  A
O862       Ni866   1.918       .  S
O862        C869   1.282       .  A
O863       Ni866   1.928       .  S
O863        C868   1.284       .  A
O864       Ni866   1.925       .  S
O864        C867   1.283       .  A
Ni865      Ni866   2.386       .  S
C867       C2254   1.473       .  S
C868       C1825   1.483       .  S
C869       C2194   1.484       .  S
C870       C1894   1.486       .  S
O871       Ni879   1.920       .  S
O871        C881   1.283       .  A
O872       Ni879   1.925   1_554  S
O872        C882   1.284       .  A
O873       Ni879   1.913   1_554  S
O873        C883   1.280       .  A
O874       Ni879   1.914       .  S
O874        C884   1.280       .  A
O875       Ni880   1.915       .  S
O875        C884   1.282       .  A
O876       Ni880   1.914   1_554  S
O876        C883   1.281       .  A
O877       Ni880   1.905   1_554  S
O877        C882   1.279       .  A
O878       Ni880   1.908       .  S
O878        C881   1.280       .  A
Ni879      Ni880   2.386       .  S
C881       C2474   1.483       .  S
C882       C2105   1.484       .  S
C883       C2354   1.474       .  S
C884       C2234   1.478       .  S
O885       Ni893   1.911       .  S
O885        C895   1.280       .  A
O886       Ni893   1.916       .  S
O886        C896   1.282       .  A
O887       Ni893   1.918       .  S
O887        C897   1.282       .  A
O888       Ni893   1.922       .  S
O888        C898   1.282       .  A
O889       Ni894   1.911       .  S
O889        C898   1.280       .  A
O890       Ni894   1.917       .  S
O890        C897   1.281       .  A
O891       Ni894   1.919       .  S
O891        C896   1.281       .  A
O892       Ni894   1.922       .  S
O892        C895   1.283       .  A
Ni893      Ni894   2.388       .  S
C895       C2434   1.478       .  S
C896       C2614   1.479       .  S
C897       C2494   1.478       .  S
C898       C2554   1.476       .  S
O899       Ni907   1.921       .  S
O899        C909   1.282       .  A
O900       Ni907   1.924       .  S
O900        C910   1.282       .  A
O901       Ni907   1.916       .  S
O901        C911   1.281       .  A
O902       Ni907   1.916       .  S
O902        C912   1.281       .  A
O903       Ni908   1.921       .  S
O903        C912   1.282       .  A
O904       Ni908   1.913       .  S
O904        C911   1.280       .  A
O905       Ni908   1.918       .  S
O905        C910   1.282       .  A
O906       Ni908   1.914       .  S
O906        C909   1.281       .  A
Ni907      Ni908   2.386       .  S
C909       C2314   1.485       .  S
C910       C3085   1.478       .  S
C911       C2374   1.470       .  S
C912       C3034   1.483       .  S
O913       Ni921   1.906   1_545  S
O913        C923   1.279       .  A
O914       Ni921   1.907       .  S
O914        C924   1.279       .  A
O915       Ni921   1.918       .  S
O915        C925   1.282       .  A
O916       Ni921   1.917   1_545  S
O916        C926   1.282       .  A
O917       Ni922   1.919   1_545  S
O917        C926   1.282       .  A
O918       Ni922   1.919       .  S
O918        C925   1.282       .  A
O919       Ni922   1.924       .  S
O919        C924   1.283       .  A
O920       Ni922   1.926   1_545  S
O920        C923   1.283       .  A
Ni921      Ni922   2.386       .  S
C923       C2594   1.477       .  S
C924       C3365   1.474       .  S
C925       C2714   1.487       .  S
C926       C3254   1.485       .  S
O927       Ni935   1.925       .  S
O927        C937   1.283       .  A
O928       Ni935   1.926       .  S
O928        C938   1.283       .  A
O929       Ni935   1.918       .  S
O929        C939   1.282       .  A
O930       Ni935   1.919       .  S
O930        C940   1.282       .  A
O931       Ni936   1.920       .  S
O931        C940   1.282       .  A
O932       Ni936   1.916       .  S
O932        C939   1.281       .  A
O933       Ni936   1.915       .  S
O933        C938   1.281       .  A
O934       Ni936   1.915       .  S
O934        C937   1.281       .  A
Ni935      Ni936   2.384       .  S
C937       C2674   1.488       .  S
C938       C2974   1.485       .  S
C939       C2734   1.482       .  S
C940       C2914   1.488       .  S
O941       Ni949   1.913       .  S
O941        C951   1.281       .  A
O942       Ni949   1.914   1_554  S
O942        C952   1.281       .  A
O943       Ni949   1.913   1_554  S
O943        C953   1.281       .  A
O944       Ni949   1.909       .  S
O944        C954   1.280       .  A
O945       Ni950   1.924       .  S
O945        C954   1.283       .  A
O946       Ni950   1.918   1_554  S
O946        C953   1.282       .  A
O947       Ni950   1.925   1_554  S
O947        C952   1.282       .  A
O948       Ni950   1.926       .  S
O948        C951   1.283       .  A
Ni949      Ni950   2.386       .  S
C951       C2954   1.480       .  S
C952       C2045   1.478       .  S
C953       C2834   1.481       .  S
C954       C2174   1.485       .  S
O955       Ni963   1.924       .  S
O955        C965   1.283       .  A
O956       Ni963   1.924       .  S
O956        C966   1.283       .  A
O957       Ni963   1.918       .  S
O957        C967   1.281       .  A
O958       Ni963   1.917       .  S
O958        C968   1.281       .  A
O959       Ni964   1.925       .  S
O959        C968   1.283       .  A
O960       Ni964   1.925       .  S
O960        C967   1.284       .  A
O961       Ni964   1.913       .  S
O961        C966   1.280       .  A
O962       Ni964   1.918       .  S
O962        C965   1.281       .  A
Ni963      Ni964   2.384       .  S
C965       C3154   1.490       .  S
C966       C2854   1.486       .  S
C967       C3214   1.488       .  S
C968       C2794   1.482       .  S
O969       Ni977   1.919   1_545  S
O969        C979   1.282       .  A
O970       Ni977   1.922       .  S
O970        C980   1.282       .  A
O971       Ni977   1.912       .  S
O971        C981   1.281       .  A
O972       Ni977   1.919   1_545  S
O972        C982   1.282       .  A
O973       Ni978   1.917   1_545  S
O973        C982   1.281       .  A
O974       Ni978   1.922       .  S
O974        C981   1.283       .  A
O975       Ni978   1.913       .  S
O975        C980   1.280       .  A
O976       Ni978   1.916   1_545  S
O976        C979   1.281       .  A
Ni977      Ni978   2.387       .  S
C979       C3314   1.477       .  S
C980       C3194   1.477       .  S
C981       C3434   1.485       .  S
C982       C3074   1.479       .  S
O983       Ni991   1.919       .  S
O983        C993   1.282       .  A
O984       Ni991   1.921       .  S
O984        C994   1.282       .  A
O985       Ni991   1.928       .  S
O985        C995   1.284       .  A
O986       Ni991   1.932       .  S
O986        C996   1.284       .  A
O987       Ni992   1.912       .  S
O987        C996   1.281       .  A
O988       Ni992   1.911       .  S
O988        C995   1.280       .  A
O989       Ni992   1.922       .  S
O989        C994   1.283       .  A
O990       Ni992   1.922       .  S
O990        C993   1.282       .  A
Ni991      Ni992   2.384       .  S
C993       C3454   1.486       .  S
C994       C3514   1.489       .  S
C995       C3385   1.483       .  S
C996       C3574   1.488       .  S
O997      Ni1005   1.927       .  S
O997       C1007   1.284       .  A
O998      Ni1005   1.920   1_455  S
O998       C1008   1.282       .  A
O999      Ni1005   1.922   1_455  S
O999       C1009   1.282       .  A
O1000     Ni1005   1.922       .  S
O1000      C1010   1.282       .  A
O1001     Ni1006   1.917       .  S
O1001      C1010   1.281       .  A
O1002     Ni1006   1.918   1_455  S
O1002      C1009   1.281       .  A
O1003     Ni1006   1.923   1_455  S
O1003      C1008   1.283       .  A
O1004     Ni1006   1.915       .  S
O1004      C1007   1.281       .  A
Ni1005    Ni1006   2.386       .  S
C1007      C3665   1.488       .  S
C1008      C1334   1.488       .  S
C1009      C3554   1.479       .  S
C1010      C1445   1.480       .  S
O1011     Ni1019   1.923       .  S
O1011      C1021   1.282       .  A
O1012     Ni1019   1.923       .  S
O1012      C1022   1.284       .  A
O1013     Ni1019   1.922       .  S
O1013      C1023   1.282       .  A
O1014     Ni1019   1.921       .  S
O1014      C1024   1.282       .  A
O1015     Ni1020   1.922       .  S
O1015      C1024   1.283       .  A
O1016     Ni1020   1.921       .  S
O1016      C1023   1.283       .  A
O1017     Ni1020   1.908       .  S
O1017      C1022   1.279       .  A
O1018     Ni1020   1.911       .  S
O1018      C1021   1.281       .  A
Ni1019    Ni1020   2.384       .  S
C1021      C3694   1.485       .  S
C1022      C3874   1.483       .  S
C1023      C3634   1.483       .  S
C1024      C3934   1.489       .  S
O1025     Ni1033   1.916       .  S
O1025      C1035   1.282       .  A
O1026     Ni1033   1.918   1_545  S
O1026      C1036   1.282       .  A
O1027     Ni1033   1.913   1_545  S
O1027      C1037   1.281       .  A
O1028     Ni1033   1.920       .  S
O1028      C1038   1.282       .  A
O1029     Ni1034   1.920       .  S
O1029      C1038   1.282       .  A
O1030     Ni1034   1.923   1_545  S
O1030      C1037   1.283       .  A
O1031     Ni1034   1.923   1_545  S
O1031      C1036   1.282       .  A
O1032     Ni1034   1.923       .  S
O1032      C1035   1.283       .  A
Ni1033    Ni1034   2.385       .  S
C1035      C3914   1.486       .  S
C1036      C3014   1.483       .  S
C1037      C3785   1.483       .  S
C1038      C3134   1.486       .  S
O1039     Ni1047   1.923       .  S
O1039      C1049   1.283       .  A
O1040     Ni1047   1.922   1_455  S
O1040      C1050   1.282       .  A
O1041     Ni1047   1.912   1_455  S
O1041      C1051   1.280       .  A
O1042     Ni1047   1.909       .  S
O1042      C1052   1.280       .  A
O1043     Ni1048   1.922       .  S
O1043      C1052   1.283       .  A
O1044     Ni1048   1.917   1_455  S
O1044      C1051   1.281       .  A
O1045     Ni1048   1.922   1_455  S
O1045      C1050   1.283       .  A
O1046     Ni1048   1.919       .  S
O1046      C1049   1.281       .  A
Ni1047    Ni1048   2.386       .  S
C1049      C3614   1.490       .  S
C1050      C1814   1.483       .  S
C1051      C3485   1.475       .  S
C1052      C1934   1.482       .  S
O1053     Ni1061   1.922       .  S
O1053      C1063   1.283       .  A
O1054     Ni1061   1.921   1_545  S
O1054      C1064   1.282       .  A
O1055     Ni1061   1.919   1_545  S
O1055      C1065   1.282       .  A
O1056     Ni1061   1.920       .  S
O1056      C1066   1.282       .  A
O1057     Ni1062   1.923   1_565  S
O1057      C1066   1.283       .  A
O1058     Ni1062   1.923       .  S
O1058      C1065   1.283       .  A
O1059     Ni1062   1.911       .  S
O1059      C1064   1.280       .  A
O1060     Ni1062   1.911   1_565  S
O1060      C1063   1.280       .  A
Ni1061    Ni1062   2.384   1_565  S
C1063      C3854   1.485       .  S
C1064      C2534   1.484       .  S
C1065      C3734   1.485       .  S
C1066      C2654   1.490       .  S
O1067     Ni1075   1.924       .  S
O1067      C1077   1.282       .  A
O1068     Ni1075   1.920   1_554  S
O1068      C1078   1.282       .  A
O1069     Ni1075   1.925   1_554  S
O1069      C1079   1.283       .  A
O1070     Ni1075   1.926       .  S
O1070      C1080   1.284       .  A
O1071     Ni1076   1.909       .  S
O1071      C1080   1.280       .  A
O1072     Ni1076   1.915   1_554  S
O1072      C1079   1.281       .  A
O1073     Ni1076   1.919   1_554  S
O1073      C1078   1.282       .  A
O1074     Ni1076   1.917       .  S
O1074      C1077   1.282       .  A
Ni1075    Ni1076   2.385       .  S
C1077      C2894   1.486       .  S
C1078      C1565   1.484       .  S
C1079      C2765   1.481       .  S
C1080      C1694   1.484       .  S
C1081      C1082   1.405       .  A
C1081      C1086   1.398       .  A
C1081      H1091   1.083       .  S
C1082      C1083   1.411       .  A
C1082      C1087   1.492       .  S
C1083      C1084   1.404       .  A
C1083      F1088   1.357       .  S
C1084      C1085   1.405       .  A
C1084      H1089   1.083       .  S
C1085      C1086   1.407       .  A
C1086      F1090   1.358       .  S
C1087      C1092   1.410       .  A
C1087      C1096   1.406       .  A
C1092      C1093   1.399       .  A
C1092      F1097   1.357       .  S
C1093      C1094   1.402       .  A
C1093      H1098   1.083       .  S
C1094      C1095   1.408       .  A
C1095      C1096   1.402       .  A
C1095      F1099   1.356       .  S
C1096      H1100   1.083       .  S
C1101      C1102   1.406       .  A
C1101      C1106   1.399       .  A
C1101      H1111   1.083       .  S
C1102      C1103   1.409       .  A
C1102      C1107   1.488       .  S
C1103      C1104   1.398       .  A
C1103      F1108   1.358       .  S
C1104      C1105   1.403       .  A
C1104      H1109   1.083       .  S
C1105      C1106   1.407       .  A
C1106      F1110   1.356       .  S
C1107      C1112   1.409       .  A
C1107      C1116   1.406       .  A
C1112      C1113   1.398       .  A
C1112      F1117   1.357       .  S
C1113      C1114   1.403       .  A
C1113      H1118   1.083       .  S
C1114      C1115   1.407       .  A
C1115      C1116   1.398       .  A
C1115      F1119   1.358       .  S
C1116      H1120   1.083       .  S
C1121      C1122   1.405       .  A
C1121      C1126   1.398       .  A
C1121      H1131   1.083       .  S
C1122      C1123   1.406       .  A
C1122      C1127   1.477       .  S
C1123      C1124   1.395       .  A
C1123      F1128   1.358       .  S
C1124      C1125   1.400       .  A
C1124      H1129   1.083       .  S
C1125      C1126   1.404       .  A
C1126      F1130   1.357       .  S
C1127      C1132   1.406       .  A
C1127      C1136   1.404       .  A
C1132      C1133   1.397       .  A
C1132      F1137   1.357       .  S
C1133      C1134   1.402       .  A
C1133      H1138   1.083       .  S
C1134      C1135   1.404       .  A
C1135      C1136   1.396       .  A
C1135      F1139   1.357       .  S
C1136      H1140   1.083       .  S
C1141      C1142   1.402       .  A
C1141      C1146   1.394       .  A
C1141      H1151   1.083       .  S
C1142      C1143   1.409       .  A
C1142      C1147   1.486       .  S
C1143      C1144   1.404       .  A
C1143      F1148   1.358       .  S
C1144      C1145   1.407       .  A
C1144      H1149   1.083       .  S
C1145      C1146   1.409       .  A
C1146      F1150   1.357       .  S
C1147      C1152   1.409       .  A
C1147      C1156   1.404       .  A
C1152      C1153   1.398       .  A
C1152      F1157   1.357       .  S
C1153      C1154   1.403       .  A
C1153      H1158   1.083       .  S
C1154      C1155   1.407       .  A
C1155      C1156   1.399       .  A
C1155      F1159   1.358       .  S
C1156      H1160   1.083       .  S
C1161      C1162   1.403       .  A
C1161      C1166   1.397       .  A
C1161      H1171   1.083       .  S
C1162      C1163   1.404       .  A
C1162      C1167   1.478       .  S
C1163      C1164   1.397       .  A
C1163      F1168   1.358       .  S
C1164      C1165   1.408       .  A
C1164      H1169   1.083       .  S
C1165      C1166   1.409       .  A
C1166      F1170   1.357       .  S
C1167      C1172   1.405       .  A
C1167      C1176   1.404       .  A
C1172      C1173   1.396       .  A
C1172      F1177   1.358       .  S
C1173      C1174   1.402       .  A
C1173      H1178   1.083       .  S
C1174      C1175   1.406       .  A
C1175      C1176   1.399       .  A
C1175      F1179   1.357       .  S
C1176      H1180   1.083       .  S
C1181      C1182   1.405       .  A
C1181      C1186   1.397       .  A
C1181      H1191   1.083       .  S
C1182      C1183   1.408       .  A
C1182      C1187   1.484       .  S
C1183      C1184   1.398       .  A
C1183      F1188   1.358       .  S
C1184      C1185   1.404       .  A
C1184      H1189   1.082       .  S
C1185      C1186   1.406       .  A
C1186      F1190   1.356       .  S
C1187      C1192   1.409       .  A
C1187      C1196   1.406       .  A
C1192      C1193   1.398       .  A
C1192      F1197   1.357       .  S
C1193      C1194   1.402       .  A
C1193      H1198   1.083       .  S
C1194      C1195   1.403       .  A
C1195      C1196   1.397       .  A
C1195      F1199   1.357       .  S
C1196      H1200   1.083       .  S
C1201      C1202   1.403       .  A
C1201      C1206   1.397       .  A
C1201      H1211   1.083       .  S
C1202      C1203   1.408       .  A
C1202      C1207   1.486       .  S
C1203      C1204   1.403       .  A
C1203      F1208   1.357       .  S
C1204      C1205   1.406       .  A
C1204      H1209   1.083       .  S
C1205      C1206   1.408       .  A
C1206      F1210   1.357       .  S
C1207      C1212   1.406       .  A
C1207      C1216   1.405       .  A
C1212      C1213   1.399       .  A
C1212      F1217   1.358       .  S
C1213      C1214   1.407       .  A
C1213      H1218   1.083       .  S
C1214      C1215   1.410       .  A
C1215      C1216   1.402       .  A
C1215      F1219   1.357       .  S
C1216      H1220   1.083       .  S
C1221      C1222   1.403       .  A
C1221      C1226   1.397       .  A
C1221      H1231   1.083       .  S
C1222      C1223   1.406       .  A
C1222      C1227   1.480       .  S
C1223      C1224   1.400       .  A
C1223      F1228   1.357       .  S
C1224      C1225   1.405       .  A
C1224      H1229   1.083       .  S
C1225      C1226   1.407       .  A
C1226      F1230   1.357       .  S
C1227      C1232   1.405       .  A
C1227      C1236   1.402       .  A
C1232      C1233   1.398       .  A
C1232      F1237   1.358       .  S
C1233      C1234   1.407       .  A
C1233      H1238   1.083       .  S
C1234      C1235   1.411       .  A
C1235      C1236   1.399       .  A
C1235      F1239   1.357       .  S
C1236      H1240   1.083       .  S
C1241      C1242   1.405       .  A
C1241      C1246   1.396       .  A
C1241      H1251   1.083       .  S
C1242      C1243   1.408       .  A
C1242      C1247   1.486       .  S
C1243      C1244   1.398       .  A
C1243      F1248   1.357       .  S
C1244      C1245   1.403       .  A
C1244      H1249   1.083       .  S
C1245      C1246   1.407       .  A
C1246      F1250   1.356       .  S
C1247      C1252   1.410       .  A
C1247      C1256   1.406       .  A
C1252      C1253   1.397       .  A
C1252      F1257   1.357       .  S
C1253      C1254   1.402       .  A
C1253      H1258   1.083       .  S
C1254      C1255   1.405       .  A
C1255      C1256   1.398       .  A
C1255      F1259   1.358       .  S
C1256      H1260   1.083       .  S
C1261      C1262   1.405       .  A
C1261      C1266   1.398       .  A
C1261      H1271   1.083       .  S
C1262      C1263   1.408       .  A
C1262      C1267   1.484       .  S
C1263      C1264   1.397       .  A
C1263      F1268   1.358       .  S
C1264      C1265   1.402       .  A
C1264      H1269   1.083       .  S
C1265      C1266   1.407       .  A
C1266      F1270   1.357       .  S
C1267      C1272   1.409       .  A
C1267      C1276   1.405       .  A
C1272      C1273   1.399       .  A
C1272      F1277   1.357       .  S
C1273      C1274   1.403       .  A
C1273      H1278   1.083       .  S
C1274      C1275   1.406       .  A
C1275      C1276   1.396       .  A
C1275      F1279   1.358       .  S
C1276      H1280   1.083       .  S
C1281      C1282   1.408       .  A
C1281      C1286   1.402       .  A
C1281      H1291   1.083       .  S
C1282      C1283   1.408       .  A
C1282      C1287   1.490       .  S
C1283      C1284   1.397       .  A
C1283      F1288   1.357       .  S
C1284      C1285   1.404       .  A
C1284      H1289   1.083       .  S
C1285      C1286   1.406       .  A
C1286      F1290   1.357       .  S
C1287      C1292   1.409       .  A
C1287      C1296   1.406       .  A
C1292      C1293   1.401       .  A
C1292      F1297   1.357       .  S
C1293      C1294   1.404       .  A
C1293      H1298   1.083       .  S
C1294      C1295   1.408       .  A
C1295      C1296   1.400       .  A
C1295      F1299   1.358       .  S
C1296      H1300   1.083       .  S
C1301      C1302   1.406       .  A
C1301      C1306   1.398       .  A
C1301      H1311   1.083       .  S
C1302      C1303   1.407       .  A
C1302      C1307   1.483       .  S
C1303      C1304   1.395       .  A
C1303      F1308   1.358       .  S
C1304      C1305   1.404       .  A
C1304      H1309   1.083       .  S
C1305      C1306   1.404       .  A
C1306      F1310   1.356       .  S
C1307      C1312   1.409       .  A
C1307      C1316   1.406       .  A
C1312      C1313   1.398       .  A
C1312      F1317   1.357       .  S
C1313      C1314   1.401       .  A
C1313      H1318   1.083       .  S
C1314      C1315   1.402       .  A
C1315      C1316   1.395       .  A
C1315      F1319   1.357       .  S
C1316      H1320   1.083       .  S
C1321      C1322   1.406       .  A
C1321      C1326   1.404       .  A
C1321      H1331   1.083       .  S
C1322      C1323   1.405       .  A
C1322      C1327   1.485       .  S
C1323      C1324   1.399       .  A
C1323      F1328   1.358       .  S
C1324      C1325   1.404       .  A
C1324      H1329   1.083       .  S
C1325      C1326   1.408       .  A
C1326      F1330   1.357       .  S
C1327      C1332   1.405       .  A
C1327      C1336   1.403       .  A
C1332      C1333   1.402       .  A
C1332      F1337   1.357       .  S
C1333      C1334   1.408       .  A
C1333      H1338   1.083       .  S
C1334      C1335   1.410       .  A
C1335      C1336   1.400       .  A
C1335      F1339   1.357       .  S
C1336      H1340   1.083       .  S
C1341      C1342   1.405       .  A
C1341      C1346   1.403       .  A
C1341      H1351   1.083       .  S
C1342      C1343   1.406       .  A
C1342      C1347   1.488       .  S
C1343      C1344   1.399       .  A
C1343      F1348   1.358       .  S
C1344      C1345   1.405       .  A
C1344      H1349   1.083       .  S
C1345      C1346   1.409       .  A
C1346      F1350   1.356       .  S
C1347      C1352   1.406       .  A
C1347      C1356   1.404       .  A
C1352      C1353   1.402       .  A
C1352      F1357   1.357       .  S
C1353      C1354   1.408       .  A
C1353      H1358   1.083       .  S
C1354      C1355   1.411       .  A
C1355      C1356   1.401       .  A
C1355      F1359   1.357       .  S
C1356      H1360   1.083       .  S
C1361      C1362   1.406       .  A
C1361      C1366   1.399       .  A
C1361      H1371   1.083       .  S
C1362      C1363   1.408       .  A
C1362      C1367   1.485       .  S
C1363      C1364   1.395       .  A
C1363      F1368   1.357       .  S
C1364      C1365   1.401       .  A
C1364      H1369   1.083       .  S
C1365      C1366   1.406       .  A
C1366      F1370   1.357       .  S
C1367      C1372   1.409       .  A
C1367      C1376   1.405       .  A
C1372      C1373   1.400       .  A
C1372      F1377   1.357       .  S
C1373      C1374   1.404       .  A
C1373      H1378   1.083       .  S
C1374      C1375   1.404       .  A
C1375      C1376   1.394       .  A
C1375      F1379   1.357       .  S
C1376      H1380   1.083       .  S
C1381      C1382   1.404       .  A
C1381      C1386   1.393       .  A
C1381      H1391   1.083       .  S
C1382      C1383   1.409       .  A
C1382      C1387   1.482       .  S
C1383      C1384   1.399       .  A
C1383      F1388   1.357       .  S
C1384      C1385   1.404       .  A
C1384      H1389   1.083       .  S
C1385      C1386   1.406       .  A
C1386      F1390   1.358       .  S
C1387      C1392   1.409       .  A
C1387      C1396   1.406       .  A
C1392      C1393   1.398       .  A
C1392      F1397   1.357       .  S
C1393      C1394   1.400       .  A
C1393      H1398   1.083       .  S
C1394      C1395   1.400       .  A
C1395      C1396   1.394       .  A
C1395      F1399   1.357       .  S
C1396      H1400   1.083       .  S
C1401      C1402   1.406       .  A
C1401      C1406   1.395       .  A
C1401      H1411   1.083       .  S
C1402      C1403   1.409       .  A
C1402      C1407   1.483       .  S
C1403      C1404   1.399       .  A
C1403      F1408   1.357       .  S
C1404      C1405   1.401       .  A
C1404      H1409   1.083       .  S
C1405      C1406   1.401       .  A
C1406      F1410   1.357       .  S
C1407      C1412   1.407       .  A
C1407      C1416   1.405       .  A
C1412      C1413   1.398       .  A
C1412      F1417   1.357       .  S
C1413      C1414   1.403       .  A
C1413      H1418   1.083       .  S
C1414      C1415   1.407       .  A
C1415      C1416   1.397       .  A
C1415      F1419   1.358       .  S
C1416      H1420   1.083       .  S
C1421      C1422   1.405       .  A
C1421      C1426   1.399       .  A
C1421      H1431   1.083       .  S
C1422      C1423   1.407       .  A
C1422      C1427   1.485       .  S
C1423      C1424   1.399       .  A
C1423      F1428   1.357       .  S
C1424      C1425   1.404       .  A
C1424      H1429   1.082       .  S
C1425      C1426   1.405       .  A
C1426      F1430   1.356       .  S
C1427      C1432   1.408       .  A
C1427      C1436   1.406       .  A
C1432      C1433   1.398       .  A
C1432      F1437   1.357       .  S
C1433      C1434   1.401       .  A
C1433      H1438   1.083       .  S
C1434      C1435   1.404       .  A
C1435      C1436   1.399       .  A
C1435      F1439   1.357       .  S
C1436      H1440   1.083       .  S
C1441      C1442   1.407       .  A
C1441      C1446   1.399       .  A
C1441      H1451   1.083       .  S
C1442      C1443   1.409       .  A
C1442      C1447   1.489       .  S
C1443      C1444   1.400       .  A
C1443      F1448   1.357       .  S
C1444      C1445   1.404       .  A
C1444      H1449   1.083       .  S
C1445      C1446   1.407       .  A
C1446      F1450   1.358       .  S
C1447      C1452   1.410       .  A
C1447      C1456   1.407       .  A
C1452      C1453   1.399       .  A
C1452      F1457   1.357       .  S
C1453      C1454   1.401       .  A
C1453      H1458   1.083       .  S
C1454      C1455   1.404       .  A
C1455      C1456   1.398       .  A
C1455      F1459   1.358       .  S
C1456      H1460   1.083       .  S
C1461      C1462   1.404       .  A
C1461      C1466   1.396       .  A
C1461      H1471   1.083       .  S
C1462      C1463   1.406       .  A
C1462      C1467   1.482       .  S
C1463      C1464   1.399       .  A
C1463      F1468   1.357       .  S
C1464      C1465   1.405       .  A
C1464      H1469   1.079       .  S
C1465      C1466   1.406       .  A
C1466      F1470   1.357       .  S
C1467      C1472   1.407       .  A
C1467      C1476   1.402       .  A
C1472      C1473   1.400       .  A
C1472      F1477   1.357       .  S
C1473      C1474   1.407       .  A
C1473      H1478   1.083       .  S
C1474      C1475   1.412       .  A
C1475      C1476   1.396       .  A
C1475      F1479   1.357       .  S
C1476      H1480   1.084       .  S
C1481      C1482   1.408       .  A
C1481      C1486   1.398       .  A
C1481      H1491   1.083       .  S
C1482      C1483   1.411       .  A
C1482      C1487   1.489       .  S
C1483      C1484   1.397       .  A
C1483      F1488   1.357       .  S
C1484      C1485   1.399       .  A
C1484      H1489   1.083       .  S
C1485      C1486   1.401       .  A
C1486      F1490   1.357       .  S
C1487      C1492   1.410       .  A
C1487      C1496   1.407       .  A
C1492      C1493   1.398       .  A
C1492      F1497   1.357       .  S
C1493      C1494   1.403       .  A
C1493      H1498   1.083       .  S
C1494      C1495   1.404       .  A
C1495      C1496   1.397       .  A
C1495      F1499   1.357       .  S
C1496      H1500   1.083       .  S
C1501      C1502   1.405       .  A
C1501      C1506   1.398       .  A
C1501      H1511   1.083       .  S
C1502      C1503   1.407       .  A
C1502      C1507   1.483       .  S
C1503      C1504   1.400       .  A
C1503      F1508   1.357       .  S
C1504      C1505   1.402       .  A
C1504      H1509   1.083       .  S
C1505      C1506   1.404       .  A
C1506      F1510   1.357       .  S
C1507      C1512   1.404       .  A
C1507      C1516   1.404       .  A
C1512      C1513   1.398       .  A
C1512      F1517   1.358       .  S
C1513      C1514   1.408       .  A
C1513      H1518   1.083       .  S
C1514      C1515   1.411       .  A
C1515      C1516   1.402       .  A
C1515      F1519   1.357       .  S
C1516      H1520   1.083       .  S
C1521      C1522   1.405       .  A
C1521      C1526   1.399       .  A
C1521      H1531   1.083       .  S
C1522      C1523   1.406       .  A
C1522      C1527   1.481       .  S
C1523      C1524   1.399       .  A
C1523      F1528   1.358       .  S
C1524      C1525   1.403       .  A
C1524      H1529   1.083       .  S
C1525      C1526   1.405       .  A
C1526      F1530   1.357       .  S
C1527      C1532   1.403       .  A
C1527      C1536   1.404       .  A
C1532      C1533   1.396       .  A
C1532      F1537   1.358       .  S
C1533      C1534   1.408       .  A
C1533      H1538   1.083       .  S
C1534      C1535   1.410       .  A
C1535      C1536   1.402       .  A
C1535      F1539   1.357       .  S
C1536      H1540   1.083       .  S
C1541      C1542   1.406       .  A
C1541      C1546   1.396       .  A
C1541      H1551   1.083       .  S
C1542      C1543   1.408       .  A
C1542      C1547   1.484       .  S
C1543      C1544   1.395       .  A
C1543      F1548   1.358       .  S
C1544      C1545   1.403       .  A
C1544      H1549   1.082       .  S
C1545      C1546   1.404       .  A
C1546      F1550   1.356       .  S
C1547      C1552   1.408       .  A
C1547      C1556   1.406       .  A
C1552      C1553   1.396       .  A
C1552      F1557   1.357       .  S
C1553      C1554   1.403       .  A
C1553      H1558   1.083       .  S
C1554      C1555   1.404       .  A
C1555      C1556   1.396       .  A
C1555      F1559   1.357       .  S
C1556      H1560   1.083       .  S
C1561      C1562   1.404       .  A
C1561      C1566   1.399       .  A
C1561      H1571   1.083       .  S
C1562      C1563   1.405       .  A
C1562      C1567   1.483       .  S
C1563      C1564   1.400       .  A
C1563      F1568   1.357       .  S
C1564      C1565   1.407       .  A
C1564      H1569   1.083       .  S
C1565      C1566   1.409       .  A
C1566      F1570   1.357       .  S
C1567      C1572   1.404       .  A
C1567      C1576   1.405       .  A
C1572      C1573   1.396       .  A
C1572      F1577   1.358       .  S
C1573      C1574   1.404       .  A
C1573      H1578   1.083       .  S
C1574      C1575   1.410       .  A
C1575      C1576   1.403       .  A
C1575      F1579   1.357       .  S
C1576      H1580   1.083       .  S
C1581      C1582   1.404       .  A
C1581      C1586   1.399       .  A
C1581      H1591   1.083       .  S
C1582      C1583   1.404       .  A
C1582      C1587   1.481       .  S
C1583      C1584   1.398       .  A
C1583      F1588   1.358       .  S
C1584      C1585   1.410       .  A
C1584      H1589   1.083       .  S
C1585      C1586   1.409       .  A
C1586      F1590   1.357       .  S
C1587      C1592   1.406       .  A
C1587      C1596   1.405       .  A
C1592      C1593   1.396       .  A
C1592      F1597   1.358       .  S
C1593      C1594   1.403       .  A
C1593      H1598   1.083       .  S
C1594      C1595   1.407       .  A
C1595      C1596   1.401       .  A
C1595      F1599   1.357       .  S
C1596      H1600   1.083       .  S
C1601      C1602   1.407       .  A
C1601      C1606   1.391       .  A
C1601      H1611   1.082       .  S
C1602      C1603   1.411       .  A
C1602      C1607   1.490       .  S
C1603      C1604   1.399       .  A
C1603      F1608   1.358       .  S
C1604      C1605   1.405       .  A
C1604      H1609   1.082       .  S
C1605      C1606   1.402       .  A
C1606      F1610   1.356       .  S
C1607      C1612   1.411       .  A
C1607      C1616   1.409       .  A
C1612      C1613   1.392       .  A
C1612      F1617   1.357       .  S
C1613      C1614   1.400       .  A
C1613      H1618   1.084       .  S
C1614      C1615   1.404       .  A
C1615      C1616   1.399       .  A
C1615      F1619   1.358       .  S
C1616      H1620   1.082       .  S
C1621      C1622   1.407       .  A
C1621      C1626   1.396       .  A
C1621      H1631   1.083       .  S
C1622      C1623   1.410       .  A
C1622      C1627   1.487       .  S
C1623      C1624   1.399       .  A
C1623      F1628   1.357       .  S
C1624      C1625   1.403       .  A
C1624      H1629   1.083       .  S
C1625      C1626   1.401       .  A
C1626      F1630   1.357       .  S
C1627      C1632   1.409       .  A
C1627      C1636   1.406       .  A
C1632      C1633   1.399       .  A
C1632      F1637   1.357       .  S
C1633      C1634   1.404       .  A
C1633      H1638   1.083       .  S
C1634      C1635   1.405       .  A
C1635      C1636   1.395       .  A
C1635      F1639   1.358       .  S
C1636      H1640   1.083       .  S
C1641      C1642   1.405       .  A
C1641      C1646   1.395       .  A
C1641      H1651   1.083       .  S
C1642      C1643   1.410       .  A
C1642      C1647   1.486       .  S
C1643      C1644   1.400       .  A
C1643      F1648   1.358       .  S
C1644      C1645   1.404       .  A
C1644      H1649   1.083       .  S
C1645      C1646   1.403       .  A
C1646      F1650   1.357       .  S
C1647      C1652   1.409       .  A
C1647      C1656   1.404       .  A
C1652      C1653   1.399       .  A
C1652      F1657   1.357       .  S
C1653      C1654   1.403       .  A
C1653      H1658   1.083       .  S
C1654      C1655   1.409       .  A
C1655      C1656   1.397       .  A
C1655      F1659   1.358       .  S
C1656      H1660   1.083       .  S
C1661      C1662   1.403       .  A
C1661      C1666   1.395       .  A
C1661      H1671   1.083       .  S
C1662      C1663   1.407       .  A
C1662      C1667   1.474       .  S
C1663      C1664   1.397       .  A
C1663      F1668   1.358       .  S
C1664      C1665   1.401       .  A
C1664      H1669   1.083       .  S
C1665      C1666   1.403       .  A
C1666      F1670   1.357       .  S
C1667      C1672   1.406       .  A
C1667      C1676   1.402       .  A
C1672      C1673   1.398       .  A
C1672      F1677   1.358       .  S
C1673      C1674   1.402       .  A
C1673      H1678   1.083       .  S
C1674      C1675   1.402       .  A
C1675      C1676   1.394       .  A
C1675      F1679   1.357       .  S
C1676      H1680   1.083       .  S
C1681      C1682   1.406       .  A
C1681      C1686   1.399       .  A
C1681      H1691   1.083       .  S
C1682      C1683   1.406       .  A
C1682      C1687   1.481       .  S
C1683      C1684   1.397       .  A
C1683      F1688   1.357       .  S
C1684      C1685   1.401       .  A
C1684      H1689   1.083       .  S
C1685      C1686   1.404       .  A
C1686      F1690   1.357       .  S
C1687      C1692   1.406       .  A
C1687      C1696   1.401       .  A
C1692      C1693   1.401       .  A
C1692      F1697   1.357       .  S
C1693      C1694   1.407       .  A
C1693      H1698   1.083       .  S
C1694      C1695   1.411       .  A
C1695      C1696   1.396       .  A
C1695      F1699   1.357       .  S
C1696      H1700   1.084       .  S
C1701      C1702   1.404       .  A
C1701      C1706   1.398       .  A
C1701      H1711   1.083       .  S
C1702      C1703   1.409       .  A
C1702      C1707   1.482       .  S
C1703      C1704   1.397       .  A
C1703      F1708   1.358       .  S
C1704      C1705   1.400       .  A
C1704      H1709   1.083       .  S
C1705      C1706   1.404       .  A
C1706      F1710   1.357       .  S
C1707      C1712   1.404       .  A
C1707      C1716   1.405       .  A
C1712      C1713   1.394       .  A
C1712      F1717   1.358       .  S
C1713      C1714   1.408       .  A
C1713      H1718   1.083       .  S
C1714      C1715   1.409       .  A
C1715      C1716   1.401       .  A
C1715      F1719   1.357       .  S
C1716      H1720   1.083       .  S
C1721      C1722   1.409       .  A
C1721      C1726   1.398       .  A
C1721      H1731   1.083       .  S
C1722      C1723   1.410       .  A
C1722      C1727   1.491       .  S
C1723      C1724   1.399       .  A
C1723      F1728   1.357       .  S
C1724      C1725   1.400       .  A
C1724      H1729   1.083       .  S
C1725      C1726   1.401       .  A
C1726      F1730   1.357       .  S
C1727      C1732   1.410       .  A
C1727      C1736   1.409       .  A
C1732      C1733   1.397       .  A
C1732      F1737   1.357       .  S
C1733      C1734   1.403       .  A
C1733      H1738   1.083       .  S
C1734      C1735   1.404       .  A
C1735      C1736   1.400       .  A
C1735      F1739   1.357       .  S
C1736      H1740   1.082       .  S
C1741      C1742   1.403       .  A
C1741      C1746   1.399       .  A
C1741      H1751   1.083       .  S
C1742      C1743   1.404       .  A
C1742      C1747   1.481       .  S
C1743      C1744   1.400       .  A
C1743      F1748   1.357       .  S
C1744      C1745   1.408       .  A
C1744      H1749   1.083       .  S
C1745      C1746   1.410       .  A
C1746      F1750   1.357       .  S
C1747      C1752   1.407       .  A
C1747      C1756   1.403       .  A
C1752      C1753   1.401       .  A
C1752      F1757   1.358       .  S
C1753      C1754   1.404       .  A
C1753      H1758   1.083       .  S
C1754      C1755   1.405       .  A
C1755      C1756   1.399       .  A
C1755      F1759   1.357       .  S
C1756      H1760   1.083       .  S
C1761      C1762   1.404       .  A
C1761      C1766   1.399       .  A
C1761      H1771   1.083       .  S
C1762      C1763   1.406       .  A
C1762      C1767   1.484       .  S
C1763      C1764   1.400       .  A
C1763      F1768   1.358       .  S
C1764      C1765   1.406       .  A
C1764      H1769   1.082       .  S
C1765      C1766   1.406       .  A
C1766      F1770   1.357       .  S
C1767      C1772   1.405       .  A
C1767      C1776   1.404       .  A
C1772      C1773   1.398       .  A
C1772      F1777   1.357       .  S
C1773      C1774   1.406       .  A
C1773      H1778   1.083       .  S
C1774      C1775   1.411       .  A
C1775      C1776   1.401       .  A
C1775      F1779   1.358       .  S
C1776      H1780   1.083       .  S
C1781      C1782   1.403       .  A
C1781      C1786   1.395       .  A
C1781      H1791   1.083       .  S
C1782      C1783   1.406       .  A
C1782      C1787   1.473       .  S
C1783      C1784   1.395       .  A
C1783      F1788   1.358       .  S
C1784      C1785   1.400       .  A
C1784      H1789   1.083       .  S
C1785      C1786   1.402       .  A
C1786      F1790   1.357       .  S
C1787      C1792   1.405       .  A
C1787      C1796   1.404       .  A
C1792      C1793   1.394       .  A
C1792      F1797   1.357       .  S
C1793      C1794   1.402       .  A
C1793      H1798   1.083       .  S
C1794      C1795   1.405       .  A
C1795      C1796   1.395       .  A
C1795      F1799   1.358       .  S
C1796      H1800   1.083       .  S
C1801      C1802   1.407       .  A
C1801      C1806   1.400       .  A
C1801      H1811   1.083       .  S
C1802      C1803   1.408       .  A
C1802      C1807   1.490       .  S
C1803      C1804   1.399       .  A
C1803      F1808   1.357       .  S
C1804      C1805   1.405       .  A
C1804      H1809   1.083       .  S
C1805      C1806   1.408       .  A
C1806      F1810   1.356       .  S
C1807      C1812   1.408       .  A
C1807      C1816   1.407       .  A
C1812      C1813   1.399       .  A
C1812      F1817   1.357       .  S
C1813      C1814   1.405       .  A
C1813      H1818   1.083       .  S
C1814      C1815   1.408       .  A
C1815      C1816   1.401       .  A
C1815      F1819   1.357       .  S
C1816      H1820   1.083       .  S
C1821      C1822   1.405       .  A
C1821      C1826   1.398       .  A
C1821      H1831   1.083       .  S
C1822      C1823   1.410       .  A
C1822      C1827   1.492       .  S
C1823      C1824   1.403       .  A
C1823      F1828   1.357       .  S
C1824      C1825   1.405       .  A
C1824      H1829   1.083       .  S
C1825      C1826   1.408       .  A
C1826      F1830   1.358       .  S
C1827      C1832   1.409       .  A
C1827      C1836   1.407       .  A
C1832      C1833   1.397       .  A
C1832      F1837   1.358       .  S
C1833      C1834   1.403       .  A
C1833      H1838   1.083       .  S
C1834      C1835   1.408       .  A
C1835      C1836   1.403       .  A
C1835      F1839   1.356       .  S
C1836      H1840   1.083       .  S
C1841      C1842   1.401       .  A
C1841      C1846   1.396       .  A
C1841      H1851   1.083       .  S
C1842      C1843   1.403       .  A
C1842      C1847   1.471       .  S
C1843      C1844   1.398       .  A
C1843      F1848   1.357       .  S
C1844      C1845   1.404       .  A
C1844      H1849   1.083       .  S
C1845      C1846   1.406       .  A
C1846      F1850   1.357       .  S
C1847      C1852   1.402       .  A
C1847      C1856   1.403       .  A
C1852      C1853   1.395       .  A
C1852      F1857   1.358       .  S
C1853      C1854   1.401       .  A
C1853      H1858   1.083       .  S
C1854      C1855   1.405       .  A
C1855      C1856   1.401       .  A
C1855      F1859   1.357       .  S
C1856      H1860   1.083       .  S
C1861      C1862   1.403       .  A
C1861      C1866   1.399       .  A
C1861      H1871   1.083       .  S
C1862      C1863   1.405       .  A
C1862      C1867   1.483       .  S
C1863      C1864   1.399       .  A
C1863      F1868   1.357       .  S
C1864      C1865   1.407       .  A
C1864      H1869   1.083       .  S
C1865      C1866   1.411       .  A
C1866      F1870   1.357       .  S
C1867      C1872   1.406       .  A
C1867      C1876   1.405       .  A
C1872      C1873   1.397       .  A
C1872      F1877   1.358       .  S
C1873      C1874   1.402       .  A
C1873      H1878   1.083       .  S
C1874      C1875   1.406       .  A
C1875      C1876   1.401       .  A
C1875      F1879   1.357       .  S
C1876      H1880   1.083       .  S
C1881      C1882   1.402       .  A
C1881      C1886   1.399       .  A
C1881      H1891   1.083       .  S
C1882      C1883   1.405       .  A
C1882      C1887   1.480       .  S
C1883      C1884   1.398       .  A
C1883      F1888   1.357       .  S
C1884      C1885   1.405       .  A
C1884      H1889   1.082       .  S
C1885      C1886   1.410       .  A
C1886      F1890   1.358       .  S
C1887      C1892   1.405       .  A
C1887      C1896   1.402       .  A
C1892      C1893   1.401       .  A
C1892      F1897   1.357       .  S
C1893      C1894   1.408       .  A
C1893      H1898   1.083       .  S
C1894      C1895   1.410       .  A
C1895      C1896   1.397       .  A
C1895      F1899   1.357       .  S
C1896      H1900   1.083       .  S
C1901      C1902   1.406       .  A
C1901      C1906   1.400       .  A
C1901      H1911   1.083       .  S
C1902      C1903   1.408       .  A
C1902      C1907   1.488       .  S
C1903      C1904   1.400       .  A
C1903      F1908   1.357       .  S
C1904      C1905   1.404       .  A
C1904      H1909   1.083       .  S
C1905      C1906   1.407       .  A
C1906      F1910   1.357       .  S
C1907      C1912   1.410       .  A
C1907      C1916   1.406       .  A
C1912      C1913   1.400       .  A
C1912      F1917   1.357       .  S
C1913      C1914   1.401       .  A
C1913      H1918   1.083       .  S
C1914      C1915   1.404       .  A
C1915      C1916   1.399       .  A
C1915      F1919   1.357       .  S
C1916      H1920   1.083       .  S
C1921      C1922   1.404       .  A
C1921      C1926   1.397       .  A
C1921      H1931   1.083       .  S
C1922      C1923   1.406       .  A
C1922      C1927   1.478       .  S
C1923      C1924   1.396       .  A
C1923      F1928   1.357       .  S
C1924      C1925   1.402       .  A
C1924      H1929   1.083       .  S
C1925      C1926   1.406       .  A
C1926      F1930   1.358       .  S
C1927      C1932   1.406       .  A
C1927      C1936   1.401       .  A
C1932      C1933   1.400       .  A
C1932      F1937   1.358       .  S
C1933      C1934   1.407       .  A
C1933      H1938   1.083       .  S
C1934      C1935   1.410       .  A
C1935      C1936   1.394       .  A
C1935      F1939   1.357       .  S
C1936      H1940   1.083       .  S
C1941      C1942   1.404       .  A
C1941      C1946   1.397       .  A
C1941      H1951   1.083       .  S
C1942      C1943   1.410       .  A
C1942      C1947   1.486       .  S
C1943      C1944   1.400       .  A
C1943      F1948   1.357       .  S
C1944      C1945   1.402       .  A
C1944      H1949   1.083       .  S
C1945      C1946   1.406       .  A
C1946      F1950   1.358       .  S
C1947      C1952   1.407       .  A
C1947      C1956   1.404       .  A
C1952      C1953   1.399       .  A
C1952      F1957   1.358       .  S
C1953      C1954   1.406       .  A
C1953      H1958   1.083       .  S
C1954      C1955   1.410       .  A
C1955      C1956   1.399       .  A
C1955      F1959   1.357       .  S
C1956      H1960   1.083       .  S
C1961      C1962   1.410       .  A
C1961      C1966   1.402       .  A
C1961      H1971   1.082       .  S
C1962      C1963   1.412       .  A
C1962      C1967   1.501       .  S
C1963      C1964   1.399       .  A
C1963      F1968   1.357       .  S
C1964      C1965   1.405       .  A
C1964      H1969   1.082       .  S
C1965      C1966   1.407       .  A
C1966      F1970   1.356       .  S
C1967      C1972   1.413       .  A
C1967      C1976   1.410       .  A
C1972      C1973   1.401       .  A
C1972      F1977   1.357       .  S
C1973      C1974   1.403       .  A
C1973      H1978   1.083       .  S
C1974      C1975   1.406       .  A
C1975      C1976   1.400       .  A
C1975      F1979   1.358       .  S
C1976      H1980   1.082       .  S
C1981      C1982   1.406       .  A
C1981      C1986   1.403       .  A
C1981      H1991   1.083       .  S
C1982      C1983   1.406       .  A
C1982      C1987   1.484       .  S
C1983      C1984   1.396       .  A
C1983      F1988   1.357       .  S
C1984      C1985   1.402       .  A
C1984      H1989   1.083       .  S
C1985      C1986   1.407       .  A
C1986      F1990   1.357       .  S
C1987      C1992   1.406       .  A
C1987      C1996   1.402       .  A
C1992      C1993   1.400       .  A
C1992      F1997   1.357       .  S
C1993      C1994   1.406       .  A
C1993      H1998   1.083       .  S
C1994      C1995   1.412       .  A
C1995      C1996   1.400       .  A
C1995      F1999   1.358       .  S
C1996      H2000   1.083       .  S
C2001      C2002   1.404       .  A
C2001      C2006   1.398       .  A
C2001      H2011   1.083       .  S
C2002      C2003   1.405       .  A
C2002      C2007   1.478       .  S
C2003      C2004   1.400       .  A
C2003      F2008   1.357       .  S
C2004      C2005   1.404       .  A
C2004      H2009   1.083       .  S
C2005      C2006   1.404       .  A
C2006      F2010   1.357       .  S
C2007      C2012   1.405       .  A
C2007      C2016   1.399       .  A
C2012      C2013   1.402       .  A
C2012      F2017   1.357       .  S
C2013      C2014   1.408       .  A
C2013      H2018   1.083       .  S
C2014      C2015   1.413       .  A
C2015      C2016   1.396       .  A
C2015      F2019   1.357       .  S
C2016      H2020   1.084       .  S
C2021      C2022   1.407       .  A
C2021      C2026   1.396       .  A
C2021      H2031   1.082       .  S
C2022      C2023   1.413       .  A
C2022      C2027   1.491       .  S
C2023      C2024   1.399       .  A
C2023      F2028   1.357       .  S
C2024      C2025   1.400       .  A
C2024      H2029   1.083       .  S
C2025      C2026   1.402       .  A
C2026      F2030   1.357       .  S
C2027      C2032   1.412       .  A
C2027      C2036   1.406       .  A
C2032      C2033   1.400       .  A
C2032      F2037   1.357       .  S
C2033      C2034   1.403       .  A
C2033      H2038   1.083       .  S
C2034      C2035   1.405       .  A
C2035      C2036   1.396       .  A
C2035      F2039   1.358       .  S
C2036      H2040   1.082       .  S
C2041      C2042   1.405       .  A
C2041      C2046   1.397       .  A
C2041      H2051   1.083       .  S
C2042      C2043   1.409       .  A
C2042      C2047   1.487       .  S
C2043      C2044   1.402       .  A
C2043      F2048   1.357       .  S
C2044      C2045   1.404       .  A
C2044      H2049   1.083       .  S
C2045      C2046   1.406       .  A
C2046      F2050   1.358       .  S
C2047      C2052   1.408       .  A
C2047      C2056   1.406       .  A
C2052      C2053   1.397       .  A
C2052      F2057   1.357       .  S
C2053      C2054   1.403       .  A
C2053      H2058   1.083       .  S
C2054      C2055   1.408       .  A
C2055      C2056   1.402       .  A
C2055      F2059   1.357       .  S
C2056      H2060   1.083       .  S
C2061      C2062   1.406       .  A
C2061      C2066   1.396       .  A
C2061      H2071   1.083       .  S
C2062      C2063   1.410       .  A
C2062      C2067   1.491       .  S
C2063      C2064   1.403       .  A
C2063      F2068   1.357       .  S
C2064      C2065   1.406       .  A
C2064      H2069   1.083       .  S
C2065      C2066   1.405       .  A
C2066      F2070   1.357       .  S
C2067      C2072   1.409       .  A
C2067      C2076   1.407       .  A
C2072      C2073   1.397       .  A
C2072      F2077   1.357       .  S
C2073      C2074   1.403       .  A
C2073      H2078   1.083       .  S
C2074      C2075   1.408       .  A
C2075      C2076   1.402       .  A
C2075      F2079   1.358       .  S
C2076      H2080   1.083       .  S
C2081      C2082   1.405       .  A
C2081      C2086   1.394       .  A
C2081      H2091   1.083       .  S
C2082      C2083   1.408       .  A
C2082      C2087   1.479       .  S
C2083      C2084   1.397       .  A
C2083      F2088   1.357       .  S
C2084      C2085   1.401       .  A
C2084      H2089   1.083       .  S
C2085      C2086   1.401       .  A
C2086      F2090   1.357       .  S
C2087      C2092   1.407       .  A
C2087      C2096   1.405       .  A
C2092      C2093   1.394       .  A
C2092      F2097   1.357       .  S
C2093      C2094   1.402       .  A
C2093      H2098   1.083       .  S
C2094      C2095   1.405       .  A
C2095      C2096   1.397       .  A
C2095      F2099   1.357       .  S
C2096      H2100   1.083       .  S
C2101      C2102   1.401       .  A
C2101      C2106   1.396       .  A
C2101      H2111   1.083       .  S
C2102      C2103   1.405       .  A
C2102      C2107   1.479       .  S
C2103      C2104   1.398       .  A
C2103      F2108   1.357       .  S
C2104      C2105   1.406       .  A
C2104      H2109   1.083       .  S
C2105      C2106   1.412       .  A
C2106      F2110   1.358       .  S
C2107      C2112   1.407       .  A
C2107      C2116   1.404       .  A
C2112      C2113   1.398       .  A
C2112      F2117   1.357       .  S
C2113      C2114   1.402       .  A
C2113      H2118   1.083       .  S
C2114      C2115   1.404       .  A
C2115      C2116   1.397       .  A
C2115      F2119   1.357       .  S
C2116      H2120   1.083       .  S
C2121      C2122   1.403       .  A
C2121      C2126   1.400       .  A
C2121      H2131   1.083       .  S
C2122      C2123   1.404       .  A
C2122      C2127   1.480       .  S
C2123      C2124   1.398       .  A
C2123      F2128   1.358       .  S
C2124      C2125   1.408       .  A
C2124      H2129   1.083       .  S
C2125      C2126   1.411       .  A
C2126      F2130   1.357       .  S
C2127      C2132   1.407       .  A
C2127      C2136   1.405       .  A
C2132      C2133   1.398       .  A
C2132      F2137   1.357       .  S
C2133      C2134   1.402       .  A
C2133      H2138   1.083       .  S
C2134      C2135   1.404       .  A
C2135      C2136   1.398       .  A
C2135      F2139   1.357       .  S
C2136      H2140   1.083       .  S
C2141      C2142   1.408       .  A
C2141      C2146   1.399       .  A
C2141      H2151   1.082       .  S
C2142      C2143   1.412       .  A
C2142      C2147   1.495       .  S
C2143      C2144   1.401       .  A
C2143      F2148   1.357       .  S
C2144      C2145   1.405       .  A
C2144      H2149   1.083       .  S
C2145      C2146   1.405       .  A
C2146      F2150   1.357       .  S
C2147      C2152   1.412       .  A
C2147      C2156   1.409       .  A
C2152      C2153   1.399       .  A
C2152      F2157   1.357       .  S
C2153      C2154   1.402       .  A
C2153      H2158   1.083       .  S
C2154      C2155   1.404       .  A
C2155      C2156   1.400       .  A
C2155      F2159   1.357       .  S
C2156      H2160   1.082       .  S
C2161      C2162   1.403       .  A
C2161      C2166   1.400       .  A
C2161      H2171   1.083       .  S
C2162      C2163   1.404       .  A
C2162      C2167   1.477       .  S
C2163      C2164   1.397       .  A
C2163      F2168   1.358       .  S
C2164      C2165   1.404       .  A
C2164      H2169   1.083       .  S
C2165      C2166   1.407       .  A
C2166      F2170   1.357       .  S
C2167      C2172   1.403       .  A
C2167      C2176   1.402       .  A
C2172      C2173   1.397       .  A
C2172      F2177   1.358       .  S
C2173      C2174   1.409       .  A
C2173      H2178   1.083       .  S
C2174      C2175   1.410       .  A
C2175      C2176   1.399       .  A
C2175      F2179   1.357       .  S
C2176      H2180   1.083       .  S
C2181      C2182   1.405       .  A
C2181      C2186   1.397       .  A
C2181      H2191   1.083       .  S
C2182      C2183   1.408       .  A
C2182      C2187   1.487       .  S
C2183      C2184   1.401       .  A
C2183      F2188   1.357       .  S
C2184      C2185   1.404       .  A
C2184      H2189   1.083       .  S
C2185      C2186   1.404       .  A
C2186      F2190   1.357       .  S
C2187      C2192   1.407       .  A
C2187      C2196   1.405       .  A
C2192      C2193   1.398       .  A
C2192      F2197   1.358       .  S
C2193      C2194   1.405       .  A
C2193      H2198   1.083       .  S
C2194      C2195   1.409       .  A
C2195      C2196   1.401       .  A
C2195      F2199   1.357       .  S
C2196      H2200   1.083       .  S
C2201      C2202   1.407       .  A
C2201      C2206   1.397       .  A
C2201      H2211   1.083       .  S
C2202      C2203   1.409       .  A
C2202      C2207   1.488       .  S
C2203      C2204   1.396       .  A
C2203      F2208   1.357       .  S
C2204      C2205   1.403       .  A
C2204      H2209   1.083       .  S
C2205      C2206   1.405       .  A
C2206      F2210   1.356       .  S
C2207      C2212   1.410       .  A
C2207      C2216   1.407       .  A
C2212      C2213   1.397       .  A
C2212      F2217   1.357       .  S
C2213      C2214   1.402       .  A
C2213      H2218   1.083       .  S
C2214      C2215   1.405       .  A
C2215      C2216   1.398       .  A
C2215      F2219   1.358       .  S
C2216      H2220   1.083       .  S
C2221      C2222   1.405       .  A
C2221      C2226   1.395       .  A
C2221      H2231   1.083       .  S
C2222      C2223   1.409       .  A
C2222      C2227   1.485       .  S
C2223      C2224   1.399       .  A
C2223      F2228   1.357       .  S
C2224      C2225   1.403       .  A
C2224      H2229   1.083       .  S
C2225      C2226   1.404       .  A
C2226      F2230   1.358       .  S
C2227      C2232   1.408       .  A
C2227      C2236   1.405       .  A
C2232      C2233   1.396       .  A
C2232      F2237   1.357       .  S
C2233      C2234   1.404       .  A
C2233      H2238   1.083       .  S
C2234      C2235   1.408       .  A
C2235      C2236   1.397       .  A
C2235      F2239   1.358       .  S
C2236      H2240   1.083       .  S
C2241      C2242   1.403       .  A
C2241      C2246   1.396       .  A
C2241      H2251   1.083       .  S
C2242      C2243   1.409       .  A
C2242      C2247   1.481       .  S
C2243      C2244   1.398       .  A
C2243      F2248   1.358       .  S
C2244      C2245   1.401       .  A
C2244      H2249   1.083       .  S
C2245      C2246   1.404       .  A
C2246      F2250   1.357       .  S
C2247      C2252   1.406       .  A
C2247      C2256   1.406       .  A
C2252      C2253   1.395       .  A
C2252      F2257   1.358       .  S
C2253      C2254   1.404       .  A
C2253      H2258   1.084       .  S
C2254      C2255   1.405       .  A
C2255      C2256   1.399       .  A
C2255      F2259   1.357       .  S
C2256      H2260   1.083       .  S
C2261      C2262   1.403       .  A
C2261      C2266   1.396       .  A
C2261      H2271   1.083       .  S
C2262      C2263   1.406       .  A
C2262      C2267   1.475       .  S
C2263      C2264   1.399       .  A
C2263      F2268   1.357       .  S
C2264      C2265   1.402       .  A
C2264      H2269   1.083       .  S
C2265      C2266   1.404       .  A
C2266      F2270   1.357       .  S
C2267      C2272   1.405       .  A
C2267      C2276   1.403       .  A
C2272      C2273   1.397       .  A
C2272      F2277   1.357       .  S
C2273      C2274   1.403       .  A
C2273      H2278   1.083       .  S
C2274      C2275   1.405       .  A
C2275      C2276   1.398       .  A
C2275      F2279   1.357       .  S
C2276      H2280   1.083       .  S
C2281      C2282   1.402       .  A
C2281      C2286   1.397       .  A
C2281      H2291   1.083       .  S
C2282      C2283   1.404       .  A
C2282      C2287   1.478       .  S
C2283      C2284   1.399       .  A
C2283      F2288   1.358       .  S
C2284      C2285   1.408       .  A
C2284      H2289   1.083       .  S
C2285      C2286   1.412       .  A
C2286      F2290   1.357       .  S
C2287      C2292   1.406       .  A
C2287      C2296   1.404       .  A
C2292      C2293   1.398       .  A
C2292      F2297   1.357       .  S
C2293      C2294   1.402       .  A
C2293      H2298   1.083       .  S
C2294      C2295   1.404       .  A
C2295      C2296   1.397       .  A
C2295      F2299   1.357       .  S
C2296      H2300   1.083       .  S
C2301      C2302   1.404       .  A
C2301      C2306   1.398       .  A
C2301      H2311   1.083       .  S
C2302      C2303   1.407       .  A
C2302      C2307   1.478       .  S
C2303      C2304   1.397       .  A
C2303      F2308   1.357       .  S
C2304      C2305   1.401       .  A
C2304      H2309   1.083       .  S
C2305      C2306   1.404       .  A
C2306      F2310   1.357       .  S
C2307      C2312   1.404       .  A
C2307      C2316   1.402       .  A
C2312      C2313   1.398       .  A
C2312      F2317   1.358       .  S
C2313      C2314   1.408       .  A
C2313      H2318   1.083       .  S
C2314      C2315   1.411       .  A
C2315      C2316   1.398       .  A
C2315      F2319   1.357       .  S
C2316      H2320   1.083       .  S
C2321      C2322   1.405       .  A
C2321      C2326   1.397       .  A
C2321      H2331   1.083       .  S
C2322      C2323   1.408       .  A
C2322      C2327   1.483       .  S
C2323      C2324   1.397       .  A
C2323      F2328   1.358       .  S
C2324      C2325   1.403       .  A
C2324      H2329   1.083       .  S
C2325      C2326   1.404       .  A
C2326      F2330   1.356       .  S
C2327      C2332   1.408       .  A
C2327      C2336   1.405       .  A
C2332      C2333   1.397       .  A
C2332      F2337   1.357       .  S
C2333      C2334   1.403       .  A
C2333      H2338   1.083       .  S
C2334      C2335   1.406       .  A
C2335      C2336   1.397       .  A
C2335      F2339   1.358       .  S
C2336      H2340   1.083       .  S
C2341      C2342   1.406       .  A
C2341      C2346   1.397       .  A
C2341      H2351   1.083       .  S
C2342      C2343   1.408       .  A
C2342      C2347   1.480       .  S
C2343      C2344   1.394       .  A
C2343      F2348   1.357       .  S
C2344      C2345   1.398       .  A
C2344      H2349   1.083       .  S
C2345      C2346   1.402       .  A
C2346      F2350   1.358       .  S
C2347      C2352   1.407       .  A
C2347      C2356   1.404       .  A
C2352      C2353   1.394       .  A
C2352      F2357   1.358       .  S
C2353      C2354   1.403       .  A
C2353      H2358   1.083       .  S
C2354      C2355   1.408       .  A
C2355      C2356   1.398       .  A
C2355      F2359   1.357       .  S
C2356      H2360   1.083       .  S
C2361      C2362   1.403       .  A
C2361      C2366   1.394       .  A
C2361      H2371   1.083       .  S
C2362      C2363   1.407       .  A
C2362      C2367   1.477       .  S
C2363      C2364   1.396       .  A
C2363      F2368   1.357       .  S
C2364      C2365   1.401       .  A
C2364      H2369   1.083       .  S
C2365      C2366   1.405       .  A
C2366      F2370   1.357       .  S
C2367      C2372   1.406       .  A
C2367      C2376   1.404       .  A
C2372      C2373   1.395       .  A
C2372      F2377   1.358       .  S
C2373      C2374   1.403       .  A
C2373      H2378   1.083       .  S
C2374      C2375   1.406       .  A
C2375      C2376   1.397       .  A
C2375      F2379   1.358       .  S
C2376      H2380   1.083       .  S
C2381      C2382   1.407       .  A
C2381      C2386   1.400       .  A
C2381      H2391   1.083       .  S
C2382      C2383   1.411       .  A
C2382      C2387   1.489       .  S
C2383      C2384   1.397       .  A
C2383      F2388   1.357       .  S
C2384      C2385   1.400       .  A
C2384      H2389   1.083       .  S
C2385      C2386   1.403       .  A
C2386      F2390   1.357       .  S
C2387      C2392   1.411       .  A
C2387      C2396   1.407       .  A
C2392      C2393   1.400       .  A
C2392      F2397   1.357       .  S
C2393      C2394   1.402       .  A
C2393      H2398   1.083       .  S
C2394      C2395   1.402       .  A
C2395      C2396   1.396       .  A
C2395      F2399   1.356       .  S
C2396      H2400   1.083       .  S
C2401      C2402   1.405       .  A
C2401      C2406   1.397       .  A
C2401      H2411   1.083       .  S
C2402      C2403   1.408       .  A
C2402      C2407   1.481       .  S
C2403      C2404   1.396       .  A
C2403      F2408   1.358       .  S
C2404      C2405   1.401       .  A
C2404      H2409   1.084       .  S
C2405      C2406   1.404       .  A
C2406      F2410   1.358       .  S
C2407      C2412   1.408       .  A
C2407      C2416   1.405       .  A
C2412      C2413   1.397       .  A
C2412      F2417   1.357       .  S
C2413      C2414   1.401       .  A
C2413      H2418   1.083       .  S
C2414      C2415   1.403       .  A
C2415      C2416   1.396       .  A
C2415      F2419   1.356       .  S
C2416      H2420   1.083       .  S
C2421      C2422   1.404       .  A
C2421      C2426   1.397       .  A
C2421      H2431   1.083       .  S
C2422      C2423   1.407       .  A
C2422      C2427   1.484       .  S
C2423      C2424   1.397       .  A
C2423      F2428   1.358       .  S
C2424      C2425   1.404       .  A
C2424      H2429   1.079       .  S
C2425      C2426   1.408       .  A
C2426      F2430   1.358       .  S
C2427      C2432   1.407       .  A
C2427      C2436   1.406       .  A
C2432      C2433   1.398       .  A
C2432      F2437   1.358       .  S
C2433      C2434   1.406       .  A
C2433      H2438   1.083       .  S
C2434      C2435   1.406       .  A
C2435      C2436   1.397       .  A
C2435      F2439   1.357       .  S
C2436      H2440   1.083       .  S
C2441      C2442   1.411       .  A
C2441      C2446   1.397       .  A
C2441      H2451   1.082       .  S
C2442      C2443   1.416       .  A
C2442      C2447   1.500       .  S
C2443      C2444   1.399       .  A
C2443      F2448   1.356       .  S
C2444      C2445   1.398       .  A
C2444      H2449   1.083       .  S
C2445      C2446   1.400       .  A
C2446      F2450   1.357       .  S
C2447      C2452   1.412       .  A
C2447      C2456   1.410       .  A
C2452      C2453   1.398       .  A
C2452      F2457   1.357       .  S
C2453      C2454   1.406       .  A
C2453      H2458   1.083       .  S
C2454      C2455   1.407       .  A
C2455      C2456   1.399       .  A
C2455      F2459   1.358       .  S
C2456      H2460   1.082       .  S
C2461      C2462   1.403       .  A
C2461      C2466   1.397       .  A
C2461      H2471   1.083       .  S
C2462      C2463   1.406       .  A
C2462      C2467   1.477       .  S
C2463      C2464   1.398       .  A
C2463      F2468   1.357       .  S
C2464      C2465   1.402       .  A
C2464      H2469   1.083       .  S
C2465      C2466   1.405       .  A
C2466      F2470   1.357       .  S
C2467      C2472   1.404       .  A
C2467      C2476   1.401       .  A
C2472      C2473   1.398       .  A
C2472      F2477   1.357       .  S
C2473      C2474   1.407       .  A
C2473      H2478   1.083       .  S
C2474      C2475   1.412       .  A
C2475      C2476   1.396       .  A
C2475      F2479   1.358       .  S
C2476      H2480   1.083       .  S
C2481      C2482   1.405       .  A
C2481      C2486   1.397       .  A
C2481      H2491   1.083       .  S
C2482      C2483   1.408       .  A
C2482      C2487   1.485       .  S
C2483      C2484   1.400       .  A
C2483      F2488   1.358       .  S
C2484      C2485   1.405       .  A
C2484      H2489   1.083       .  S
C2485      C2486   1.404       .  A
C2486      F2490   1.357       .  S
C2487      C2492   1.407       .  A
C2487      C2496   1.406       .  A
C2492      C2493   1.398       .  A
C2492      F2497   1.357       .  S
C2493      C2494   1.404       .  A
C2493      H2498   1.083       .  S
C2494      C2495   1.407       .  A
C2495      C2496   1.399       .  A
C2495      F2499   1.358       .  S
C2496      H2500   1.083       .  S
C2501      C2502   1.406       .  A
C2501      C2506   1.394       .  A
C2501      H2511   1.083       .  S
C2502      C2503   1.407       .  A
C2502      C2507   1.482       .  S
C2503      C2504   1.398       .  A
C2503      F2508   1.357       .  S
C2504      C2505   1.403       .  A
C2504      H2509   1.083       .  S
C2505      C2506   1.403       .  A
C2506      F2510   1.356       .  S
C2507      C2512   1.407       .  A
C2507      C2516   1.406       .  A
C2512      C2513   1.393       .  A
C2512      F2517   1.358       .  S
C2513      C2514   1.403       .  A
C2513      H2518   1.083       .  S
C2514      C2515   1.407       .  A
C2515      C2516   1.400       .  A
C2515      F2519   1.357       .  S
C2516      H2520   1.083       .  S
C2521      C2522   1.403       .  A
C2521      C2526   1.396       .  A
C2521      H2531   1.083       .  S
C2522      C2523   1.407       .  A
C2522      C2527   1.477       .  S
C2523      C2524   1.398       .  A
C2523      F2528   1.358       .  S
C2524      C2525   1.402       .  A
C2524      H2529   1.083       .  S
C2525      C2526   1.404       .  A
C2526      F2530   1.357       .  S
C2527      C2532   1.405       .  A
C2527      C2536   1.400       .  A
C2532      C2533   1.400       .  A
C2532      F2537   1.358       .  S
C2533      C2534   1.408       .  A
C2533      H2538   1.083       .  S
C2534      C2535   1.411       .  A
C2535      C2536   1.394       .  A
C2535      F2539   1.357       .  S
C2536      H2540   1.084       .  S
C2541      C2542   1.401       .  A
C2541      C2546   1.397       .  A
C2541      H2551   1.083       .  S
C2542      C2543   1.403       .  A
C2542      C2547   1.471       .  S
C2543      C2544   1.396       .  A
C2543      F2548   1.357       .  S
C2544      C2545   1.404       .  A
C2544      H2549   1.083       .  S
C2545      C2546   1.407       .  A
C2546      F2550   1.357       .  S
C2547      C2552   1.403       .  A
C2547      C2556   1.400       .  A
C2552      C2553   1.398       .  A
C2552      F2557   1.357       .  S
C2553      C2554   1.405       .  A
C2553      H2558   1.083       .  S
C2554      C2555   1.409       .  A
C2555      C2556   1.397       .  A
C2555      F2559   1.358       .  S
C2556      H2560   1.084       .  S
C2561      C2562   1.408       .  A
C2561      C2566   1.394       .  A
C2561      H2571   1.082       .  S
C2562      C2563   1.412       .  A
C2562      C2567   1.495       .  S
C2563      C2564   1.399       .  A
C2563      F2568   1.357       .  S
C2564      C2565   1.403       .  A
C2564      H2569   1.083       .  S
C2565      C2566   1.404       .  A
C2566      F2570   1.356       .  S
C2567      C2572   1.412       .  A
C2567      C2576   1.410       .  A
C2572      C2573   1.396       .  A
C2572      F2577   1.357       .  S
C2573      C2574   1.403       .  A
C2573      H2578   1.084       .  S
C2574      C2575   1.405       .  A
C2575      C2576   1.399       .  A
C2575      F2579   1.357       .  S
C2576      H2580   1.082       .  S
C2581      C2582   1.407       .  A
C2581      C2586   1.397       .  A
C2581      H2591   1.083       .  S
C2582      C2583   1.407       .  A
C2582      C2587   1.486       .  S
C2583      C2584   1.398       .  A
C2583      F2588   1.357       .  S
C2584      C2585   1.404       .  A
C2584      H2589   1.083       .  S
C2585      C2586   1.403       .  A
C2586      F2590   1.357       .  S
C2587      C2592   1.407       .  A
C2587      C2596   1.407       .  A
C2592      C2593   1.395       .  A
C2592      F2597   1.358       .  S
C2593      C2594   1.404       .  A
C2593      H2598   1.083       .  S
C2594      C2595   1.407       .  A
C2595      C2596   1.401       .  A
C2595      F2599   1.357       .  S
C2596      H2600   1.083       .  S
C2601      C2602   1.406       .  A
C2601      C2606   1.401       .  A
C2601      H2611   1.083       .  S
C2602      C2603   1.408       .  A
C2602      C2607   1.483       .  S
C2603      C2604   1.395       .  A
C2603      F2608   1.357       .  S
C2604      C2605   1.399       .  A
C2604      H2609   1.083       .  S
C2605      C2606   1.404       .  A
C2606      F2610   1.357       .  S
C2607      C2612   1.407       .  A
C2607      C2616   1.405       .  A
C2612      C2613   1.395       .  A
C2612      F2617   1.358       .  S
C2613      C2614   1.403       .  A
C2613      H2618   1.083       .  S
C2614      C2615   1.409       .  A
C2615      C2616   1.402       .  A
C2615      F2619   1.357       .  S
C2616      H2620   1.083       .  S
C2621      C2622   1.402       .  A
C2621      C2626   1.395       .  A
C2621      H2631   1.083       .  S
C2622      C2623   1.406       .  A
C2622      C2627   1.471       .  S
C2623      C2624   1.397       .  A
C2623      F2628   1.357       .  S
C2624      C2625   1.401       .  A
C2624      H2629   1.083       .  S
C2625      C2626   1.404       .  A
C2626      F2630   1.357       .  S
C2627      C2632   1.405       .  A
C2627      C2636   1.402       .  A
C2632      C2633   1.396       .  A
C2632      F2637   1.358       .  S
C2633      C2634   1.402       .  A
C2633      H2638   1.083       .  S
C2634      C2635   1.403       .  A
C2635      C2636   1.395       .  A
C2635      F2639   1.357       .  S
C2636      H2640   1.083       .  S
C2641      C2642   1.406       .  A
C2641      C2646   1.401       .  A
C2641      H2651   1.083       .  S
C2642      C2643   1.407       .  A
C2642      C2647   1.484       .  S
C2643      C2644   1.399       .  A
C2643      F2648   1.357       .  S
C2644      C2645   1.403       .  A
C2644      H2649   1.083       .  S
C2645      C2646   1.405       .  A
C2646      F2650   1.357       .  S
C2647      C2652   1.405       .  A
C2647      C2656   1.403       .  A
C2652      C2653   1.400       .  A
C2652      F2657   1.357       .  S
C2653      C2654   1.409       .  A
C2653      H2658   1.083       .  S
C2654      C2655   1.411       .  A
C2655      C2656   1.400       .  A
C2655      F2659   1.357       .  S
C2656      H2660   1.083       .  S
C2661      C2662   1.405       .  A
C2661      C2666   1.397       .  A
C2661      H2671   1.083       .  S
C2662      C2663   1.408       .  A
C2662      C2667   1.485       .  S
C2663      C2664   1.401       .  A
C2663      F2668   1.357       .  S
C2664      C2665   1.404       .  A
C2664      H2669   1.083       .  S
C2665      C2666   1.403       .  A
C2666      F2670   1.357       .  S
C2667      C2672   1.407       .  A
C2667      C2676   1.402       .  A
C2672      C2673   1.402       .  A
C2672      F2677   1.357       .  S
C2673      C2674   1.408       .  A
C2673      H2678   1.083       .  S
C2674      C2675   1.411       .  A
C2675      C2676   1.397       .  A
C2675      F2679   1.357       .  S
C2676      H2680   1.083       .  S
C2681      C2682   1.407       .  A
C2681      C2686   1.398       .  A
C2681      H2691   1.083       .  S
C2682      C2683   1.410       .  A
C2682      C2687   1.487       .  S
C2683      C2684   1.399       .  A
C2683      F2688   1.357       .  S
C2684      C2685   1.399       .  A
C2684      H2689   1.083       .  S
C2685      C2686   1.402       .  A
C2686      F2690   1.357       .  S
C2687      C2692   1.409       .  A
C2687      C2696   1.407       .  A
C2692      C2693   1.399       .  A
C2692      F2697   1.358       .  S
C2693      C2694   1.404       .  A
C2693      H2698   1.083       .  S
C2694      C2695   1.404       .  A
C2695      C2696   1.398       .  A
C2695      F2699   1.357       .  S
C2696      H2700   1.083       .  S
C2701      C2702   1.404       .  A
C2701      C2706   1.400       .  A
C2701      H2711   1.083       .  S
C2702      C2703   1.405       .  A
C2702      C2707   1.478       .  S
C2703      C2704   1.397       .  A
C2703      F2708   1.357       .  S
C2704      C2705   1.403       .  A
C2704      H2709   1.083       .  S
C2705      C2706   1.406       .  A
C2706      F2710   1.358       .  S
C2707      C2712   1.403       .  A
C2707      C2716   1.401       .  A
C2712      C2713   1.400       .  A
C2712      F2717   1.358       .  S
C2713      C2714   1.409       .  A
C2713      H2718   1.083       .  S
C2714      C2715   1.411       .  A
C2715      C2716   1.397       .  A
C2715      F2719   1.357       .  S
C2716      H2720   1.084       .  S
C2721      C2722   1.404       .  A
C2721      C2726   1.398       .  A
C2721      H2731   1.083       .  S
C2722      C2723   1.406       .  A
C2722      C2727   1.481       .  S
C2723      C2724   1.398       .  A
C2723      F2728   1.358       .  S
C2724      C2725   1.403       .  A
C2724      H2729   1.083       .  S
C2725      C2726   1.406       .  A
C2726      F2730   1.357       .  S
C2727      C2732   1.406       .  A
C2727      C2736   1.403       .  A
C2732      C2733   1.398       .  A
C2732      F2737   1.358       .  S
C2733      C2734   1.406       .  A
C2733      H2738   1.083       .  S
C2734      C2735   1.410       .  A
C2735      C2736   1.398       .  A
C2735      F2739   1.357       .  S
C2736      H2740   1.083       .  S
C2741      C2742   1.405       .  A
C2741      C2746   1.399       .  A
C2741      H2751   1.083       .  S
C2742      C2743   1.408       .  A
C2742      C2747   1.485       .  S
C2743      C2744   1.398       .  A
C2743      F2748   1.358       .  S
C2744      C2745   1.405       .  A
C2744      H2749   1.083       .  S
C2745      C2746   1.406       .  A
C2746      F2750   1.357       .  S
C2747      C2752   1.408       .  A
C2747      C2756   1.407       .  A
C2752      C2753   1.396       .  A
C2752      F2757   1.357       .  S
C2753      C2754   1.401       .  A
C2753      H2758   1.083       .  S
C2754      C2755   1.404       .  A
C2755      C2756   1.400       .  A
C2755      F2759   1.357       .  S
C2756      H2760   1.083       .  S
C2761      C2762   1.405       .  A
C2761      C2766   1.398       .  A
C2761      H2771   1.083       .  S
C2762      C2763   1.410       .  A
C2762      C2767   1.490       .  S
C2763      C2764   1.401       .  A
C2763      F2768   1.357       .  S
C2764      C2765   1.405       .  A
C2764      H2769   1.083       .  S
C2765      C2766   1.408       .  A
C2766      F2770   1.358       .  S
C2767      C2772   1.408       .  A
C2767      C2776   1.406       .  A
C2772      C2773   1.398       .  A
C2772      F2777   1.358       .  S
C2773      C2774   1.406       .  A
C2773      H2778   1.083       .  S
C2774      C2775   1.409       .  A
C2775      C2776   1.401       .  A
C2775      F2779   1.355       .  S
C2776      H2780   1.083       .  S
C2781      C2782   1.404       .  A
C2781      C2786   1.399       .  A
C2781      H2791   1.083       .  S
C2782      C2783   1.409       .  A
C2782      C2787   1.489       .  S
C2783      C2784   1.401       .  A
C2783      F2788   1.357       .  S
C2784      C2785   1.405       .  A
C2784      H2789   1.082       .  S
C2785      C2786   1.408       .  A
C2786      F2790   1.357       .  S
C2787      C2792   1.409       .  A
C2787      C2796   1.405       .  A
C2792      C2793   1.402       .  A
C2792      F2797   1.358       .  S
C2793      C2794   1.405       .  A
C2793      H2798   1.083       .  S
C2794      C2795   1.407       .  A
C2795      C2796   1.398       .  A
C2795      F2799   1.357       .  S
C2796      H2800   1.083       .  S
C2801      C2802   1.405       .  A
C2801      C2806   1.399       .  A
C2801      H2811   1.083       .  S
C2802      C2803   1.407       .  A
C2802      C2807   1.482       .  S
C2803      C2804   1.397       .  A
C2803      F2808   1.357       .  S
C2804      C2805   1.401       .  A
C2804      H2809   1.083       .  S
C2805      C2806   1.404       .  A
C2806      F2810   1.357       .  S
C2807      C2812   1.407       .  A
C2807      C2816   1.404       .  A
C2812      C2813   1.400       .  A
C2812      F2817   1.357       .  S
C2813      C2814   1.403       .  A
C2813      H2818   1.083       .  S
C2814      C2815   1.404       .  A
C2815      C2816   1.397       .  A
C2815      F2819   1.357       .  S
C2816      H2820   1.083       .  S
C2821      C2822   1.405       .  A
C2821      C2826   1.397       .  A
C2821      H2831   1.083       .  S
C2822      C2823   1.407       .  A
C2822      C2827   1.479       .  S
C2823      C2824   1.396       .  A
C2823      F2828   1.357       .  S
C2824      C2825   1.401       .  A
C2824      H2829   1.083       .  S
C2825      C2826   1.404       .  A
C2826      F2830   1.358       .  S
C2827      C2832   1.406       .  A
C2827      C2836   1.402       .  A
C2832      C2833   1.399       .  A
C2832      F2837   1.358       .  S
C2833      C2834   1.407       .  A
C2833      H2838   1.083       .  S
C2834      C2835   1.409       .  A
C2835      C2836   1.395       .  A
C2835      F2839   1.357       .  S
C2836      H2840   1.083       .  S
C2841      C2842   1.403       .  A
C2841      C2846   1.397       .  A
C2841      H2851   1.083       .  S
C2842      C2843   1.406       .  A
C2842      C2847   1.477       .  S
C2843      C2844   1.398       .  A
C2843      F2848   1.357       .  S
C2844      C2845   1.403       .  A
C2844      H2849   1.083       .  S
C2845      C2846   1.404       .  A
C2846      F2850   1.357       .  S
C2847      C2852   1.404       .  A
C2847      C2856   1.401       .  A
C2852      C2853   1.399       .  A
C2852      F2857   1.358       .  S
C2853      C2854   1.408       .  A
C2853      H2858   1.083       .  S
C2854      C2855   1.412       .  A
C2855      C2856   1.397       .  A
C2855      F2859   1.357       .  S
C2856      H2860   1.084       .  S
C2861      C2862   1.407       .  A
C2861      C2866   1.396       .  A
C2861      H2871   1.082       .  S
C2862      C2863   1.411       .  A
C2862      C2867   1.492       .  S
C2863      C2864   1.400       .  A
C2863      F2868   1.357       .  S
C2864      C2865   1.403       .  A
C2864      H2869   1.083       .  S
C2865      C2866   1.404       .  A
C2866      F2870   1.356       .  S
C2867      C2872   1.412       .  A
C2867      C2876   1.407       .  A
C2872      C2873   1.398       .  A
C2872      F2877   1.357       .  S
C2873      C2874   1.402       .  A
C2873      H2878   1.083       .  S
C2874      C2875   1.406       .  A
C2875      C2876   1.399       .  A
C2875      F2879   1.358       .  S
C2876      H2880   1.082       .  S
C2881      C2882   1.407       .  A
C2881      C2886   1.398       .  A
C2881      H2891   1.083       .  S
C2882      C2883   1.411       .  A
C2882      C2887   1.491       .  S
C2883      C2884   1.401       .  A
C2883      F2888   1.357       .  S
C2884      C2885   1.401       .  A
C2884      H2889   1.083       .  S
C2885      C2886   1.402       .  A
C2886      F2890   1.357       .  S
C2887      C2892   1.408       .  A
C2887      C2896   1.407       .  A
C2892      C2893   1.397       .  A
C2892      F2897   1.357       .  S
C2893      C2894   1.405       .  A
C2893      H2898   1.083       .  S
C2894      C2895   1.410       .  A
C2895      C2896   1.402       .  A
C2895      F2899   1.357       .  S
C2896      H2900   1.083       .  S
C2901      C2902   1.404       .  A
C2901      C2906   1.400       .  A
C2901      H2911   1.083       .  S
C2902      C2903   1.407       .  A
C2902      C2907   1.485       .  S
C2903      C2904   1.399       .  A
C2903      F2908   1.357       .  S
C2904      C2905   1.404       .  A
C2904      H2909   1.081       .  S
C2905      C2906   1.407       .  A
C2906      F2910   1.357       .  S
C2907      C2912   1.406       .  A
C2907      C2916   1.403       .  A
C2912      C2913   1.400       .  A
C2912      F2917   1.357       .  S
C2913      C2914   1.408       .  A
C2913      H2918   1.083       .  S
C2914      C2915   1.411       .  A
C2915      C2916   1.398       .  A
C2915      F2919   1.357       .  S
C2916      H2920   1.083       .  S
C2921      C2922   1.407       .  A
C2921      C2926   1.396       .  A
C2921      H2931   1.083       .  S
C2922      C2923   1.410       .  A
C2922      C2927   1.486       .  S
C2923      C2924   1.398       .  A
C2923      F2928   1.357       .  S
C2924      C2925   1.399       .  A
C2924      H2929   1.083       .  S
C2925      C2926   1.399       .  A
C2926      F2930   1.357       .  S
C2927      C2932   1.409       .  A
C2927      C2936   1.406       .  A
C2932      C2933   1.398       .  A
C2932      F2937   1.357       .  S
C2933      C2934   1.402       .  A
C2933      H2938   1.083       .  S
C2934      C2935   1.404       .  A
C2935      C2936   1.397       .  A
C2935      F2939   1.358       .  S
C2936      H2940   1.083       .  S
C2941      C2942   1.408       .  A
C2941      C2946   1.398       .  A
C2941      H2951   1.083       .  S
C2942      C2943   1.409       .  A
C2942      C2947   1.489       .  S
C2943      C2944   1.400       .  A
C2943      F2948   1.357       .  S
C2944      C2945   1.403       .  A
C2944      H2949   1.083       .  S
C2945      C2946   1.403       .  A
C2946      F2950   1.357       .  S
C2947      C2952   1.410       .  A
C2947      C2956   1.405       .  A
C2952      C2953   1.403       .  A
C2952      F2957   1.357       .  S
C2953      C2954   1.405       .  A
C2953      H2958   1.083       .  S
C2954      C2955   1.406       .  A
C2955      C2956   1.396       .  A
C2955      F2959   1.358       .  S
C2956      H2960   1.083       .  S
C2961      C2962   1.406       .  A
C2961      C2966   1.401       .  A
C2961      H2971   1.083       .  S
C2962      C2963   1.405       .  A
C2962      C2967   1.486       .  S
C2963      C2964   1.399       .  A
C2963      F2968   1.358       .  S
C2964      C2965   1.406       .  A
C2964      H2969   1.083       .  S
C2965      C2966   1.408       .  A
C2966      F2970   1.356       .  S
C2967      C2972   1.406       .  A
C2967      C2976   1.406       .  A
C2972      C2973   1.398       .  A
C2972      F2977   1.358       .  S
C2973      C2974   1.407       .  A
C2973      H2978   1.083       .  S
C2974      C2975   1.409       .  A
C2975      C2976   1.402       .  A
C2975      F2979   1.357       .  S
C2976      H2980   1.083       .  S
C2981      C2982   1.406       .  A
C2981      C2986   1.399       .  A
C2981      H2991   1.083       .  S
C2982      C2983   1.406       .  A
C2982      C2987   1.480       .  S
C2983      C2984   1.392       .  A
C2983      F2988   1.358       .  S
C2984      C2985   1.403       .  A
C2984      H2989   1.083       .  S
C2985      C2986   1.404       .  A
C2986      F2990   1.356       .  S
C2987      C2992   1.408       .  A
C2987      C2996   1.405       .  A
C2992      C2993   1.400       .  A
C2992      F2997   1.357       .  S
C2993      C2994   1.402       .  A
C2993      H2998   1.083       .  S
C2994      C2995   1.402       .  A
C2995      C2996   1.393       .  A
C2995      F2999   1.358       .  S
C2996      H3000   1.083       .  S
C3001      C3002   1.407       .  A
C3001      C3006   1.401       .  A
C3001      H3011   1.083       .  S
C3002      C3003   1.409       .  A
C3002      C3007   1.488       .  S
C3003      C3004   1.398       .  A
C3003      F3008   1.357       .  S
C3004      C3005   1.400       .  A
C3004      H3009   1.083       .  S
C3005      C3006   1.404       .  A
C3006      F3010   1.357       .  S
C3007      C3012   1.408       .  A
C3007      C3016   1.405       .  A
C3012      C3013   1.398       .  A
C3012      F3017   1.358       .  S
C3013      C3014   1.405       .  A
C3013      H3018   1.083       .  S
C3014      C3015   1.408       .  A
C3015      C3016   1.401       .  A
C3015      F3019   1.357       .  S
C3016      H3020   1.083       .  S
C3021      C3022   1.408       .  A
C3021      C3026   1.402       .  A
C3021      H3031   1.083       .  S
C3022      C3023   1.409       .  A
C3022      C3027   1.492       .  S
C3023      C3024   1.398       .  A
C3023      F3028   1.357       .  S
C3024      C3025   1.404       .  A
C3024      H3029   1.083       .  S
C3025      C3026   1.407       .  A
C3026      F3030   1.356       .  S
C3027      C3032   1.409       .  A
C3027      C3036   1.407       .  A
C3032      C3033   1.400       .  A
C3032      F3037   1.357       .  S
C3033      C3034   1.406       .  A
C3033      H3038   1.083       .  S
C3034      C3035   1.407       .  A
C3035      C3036   1.399       .  A
C3035      F3039   1.357       .  S
C3036      H3040   1.083       .  S
C3041      C3042   1.405       .  A
C3041      C3046   1.397       .  A
C3041      H3051   1.083       .  S
C3042      C3043   1.409       .  A
C3042      C3047   1.484       .  S
C3043      C3044   1.398       .  A
C3043      F3048   1.357       .  S
C3044      C3045   1.400       .  A
C3044      H3049   1.083       .  S
C3045      C3046   1.404       .  A
C3046      F3050   1.357       .  S
C3047      C3052   1.409       .  A
C3047      C3056   1.407       .  A
C3052      C3053   1.397       .  A
C3052      F3057   1.357       .  S
C3053      C3054   1.401       .  A
C3053      H3058   1.083       .  S
C3054      C3055   1.401       .  A
C3055      C3056   1.398       .  A
C3055      F3059   1.357       .  S
C3056      H3060   1.083       .  S
C3061      C3062   1.407       .  A
C3061      C3066   1.401       .  A
C3061      H3071   1.083       .  S
C3062      C3063   1.408       .  A
C3062      C3067   1.488       .  S
C3063      C3064   1.397       .  A
C3063      F3068   1.357       .  S
C3064      C3065   1.401       .  A
C3064      H3069   1.083       .  S
C3065      C3066   1.405       .  A
C3066      F3070   1.357       .  S
C3067      C3072   1.408       .  A
C3067      C3076   1.407       .  A
C3072      C3073   1.400       .  A
C3072      F3077   1.357       .  S
C3073      C3074   1.405       .  A
C3073      H3078   1.083       .  S
C3074      C3075   1.406       .  A
C3075      C3076   1.398       .  A
C3075      F3079   1.358       .  S
C3076      H3080   1.083       .  S
C3081      C3082   1.410       .  A
C3081      C3086   1.403       .  A
C3081      H3091   1.082       .  S
C3082      C3083   1.411       .  A
C3082      C3087   1.496       .  S
C3083      C3084   1.397       .  A
C3083      F3088   1.357       .  S
C3084      C3085   1.402       .  A
C3084      H3089   1.084       .  S
C3085      C3086   1.405       .  A
C3086      F3090   1.357       .  S
C3087      C3092   1.413       .  A
C3087      C3096   1.409       .  A
C3092      C3093   1.403       .  A
C3092      F3097   1.357       .  S
C3093      C3094   1.402       .  A
C3093      H3098   1.083       .  S
C3094      C3095   1.401       .  A
C3095      C3096   1.397       .  A
C3095      F3099   1.358       .  S
C3096      H3100   1.082       .  S
C3101      C3102   1.406       .  A
C3101      C3106   1.399       .  A
C3101      H3111   1.083       .  S
C3102      C3103   1.408       .  A
C3102      C3107   1.483       .  S
C3103      C3104   1.396       .  A
C3103      F3108   1.357       .  S
C3104      C3105   1.401       .  A
C3104      H3109   1.083       .  S
C3105      C3106   1.403       .  A
C3106      F3110   1.357       .  S
C3107      C3112   1.408       .  A
C3107      C3116   1.405       .  A
C3112      C3113   1.396       .  A
C3112      F3117   1.357       .  S
C3113      C3114   1.401       .  A
C3113      H3118   1.083       .  S
C3114      C3115   1.405       .  A
C3115      C3116   1.399       .  A
C3115      F3119   1.357       .  S
C3116      H3120   1.083       .  S
C3121      C3122   1.404       .  A
C3121      C3126   1.400       .  A
C3121      H3131   1.083       .  S
C3122      C3123   1.406       .  A
C3122      C3127   1.482       .  S
C3123      C3124   1.399       .  A
C3123      F3128   1.358       .  S
C3124      C3125   1.403       .  A
C3124      H3129   1.083       .  S
C3125      C3126   1.407       .  A
C3126      F3130   1.357       .  S
C3127      C3132   1.405       .  A
C3127      C3136   1.402       .  A
C3132      C3133   1.401       .  A
C3132      F3137   1.358       .  S
C3133      C3134   1.408       .  A
C3133      H3138   1.083       .  S
C3134      C3135   1.410       .  A
C3135      C3136   1.398       .  A
C3135      F3139   1.357       .  S
C3136      H3140   1.083       .  S
C3141      C3142   1.404       .  A
C3141      C3146   1.399       .  A
C3141      H3151   1.083       .  S
C3142      C3143   1.407       .  A
C3142      C3147   1.484       .  S
C3143      C3144   1.401       .  A
C3143      F3148   1.357       .  S
C3144      C3145   1.405       .  A
C3144      H3149   1.083       .  S
C3145      C3146   1.405       .  A
C3146      F3150   1.357       .  S
C3147      C3152   1.405       .  A
C3147      C3156   1.402       .  A
C3152      C3153   1.401       .  A
C3152      F3157   1.357       .  S
C3153      C3154   1.408       .  A
C3153      H3158   1.083       .  S
C3154      C3155   1.412       .  A
C3155      C3156   1.400       .  A
C3155      F3159   1.357       .  S
C3156      H3160   1.083       .  S
C3161      C3162   1.406       .  A
C3161      C3166   1.397       .  A
C3161      H3171   1.083       .  S
C3162      C3163   1.409       .  A
C3162      C3167   1.483       .  S
C3163      C3164   1.394       .  A
C3163      F3168   1.357       .  S
C3164      C3165   1.401       .  A
C3164      H3169   1.083       .  S
C3165      C3166   1.403       .  A
C3166      F3170   1.357       .  S
C3167      C3172   1.409       .  A
C3167      C3176   1.405       .  A
C3172      C3173   1.398       .  A
C3172      F3177   1.357       .  S
C3173      C3174   1.403       .  A
C3173      H3178   1.083       .  S
C3174      C3175   1.406       .  A
C3175      C3176   1.395       .  A
C3175      F3179   1.358       .  S
C3176      H3180   1.083       .  S
C3181      C3182   1.406       .  A
C3181      C3186   1.398       .  A
C3181      H3191   1.083       .  S
C3182      C3183   1.409       .  A
C3182      C3187   1.487       .  S
C3183      C3184   1.400       .  A
C3183      F3188   1.357       .  S
C3184      C3185   1.403       .  A
C3184      H3189   1.083       .  S
C3185      C3186   1.404       .  A
C3186      F3190   1.357       .  S
C3187      C3192   1.408       .  A
C3187      C3196   1.407       .  A
C3192      C3193   1.398       .  A
C3192      F3197   1.357       .  S
C3193      C3194   1.404       .  A
C3193      H3198   1.083       .  S
C3194      C3195   1.405       .  A
C3195      C3196   1.399       .  A
C3195      F3199   1.357       .  S
C3196      H3200   1.083       .  S
C3201      C3202   1.406       .  A
C3201      C3206   1.397       .  A
C3201      H3211   1.083       .  S
C3202      C3203   1.409       .  A
C3202      C3207   1.491       .  S
C3203      C3204   1.402       .  A
C3203      F3208   1.357       .  S
C3204      C3205   1.406       .  A
C3204      H3209   1.082       .  S
C3205      C3206   1.406       .  A
C3206      F3210   1.357       .  S
C3207      C3212   1.408       .  A
C3207      C3216   1.405       .  A
C3212      C3213   1.399       .  A
C3212      F3217   1.357       .  S
C3213      C3214   1.405       .  A
C3213      H3218   1.083       .  S
C3214      C3215   1.412       .  A
C3215      C3216   1.401       .  A
C3215      F3219   1.357       .  S
C3216      H3220   1.083       .  S
C3221      C3222   1.405       .  A
C3221      C3226   1.396       .  A
C3221      H3231   1.083       .  S
C3222      C3223   1.407       .  A
C3222      C3227   1.481       .  S
C3223      C3224   1.398       .  A
C3223      F3228   1.357       .  S
C3224      C3225   1.401       .  A
C3224      H3229   1.083       .  S
C3225      C3226   1.403       .  A
C3226      F3230   1.357       .  S
C3227      C3232   1.408       .  A
C3227      C3236   1.405       .  A
C3232      C3233   1.396       .  A
C3232      F3237   1.358       .  S
C3233      C3234   1.401       .  A
C3233      H3238   1.083       .  S
C3234      C3235   1.403       .  A
C3235      C3236   1.399       .  A
C3235      F3239   1.357       .  S
C3236      H3240   1.083       .  S
C3241      C3242   1.406       .  A
C3241      C3246   1.400       .  A
C3241      H3251   1.083       .  S
C3242      C3243   1.407       .  A
C3242      C3247   1.482       .  S
C3243      C3244   1.396       .  A
C3243      F3248   1.357       .  S
C3244      C3245   1.400       .  A
C3244      H3249   1.083       .  S
C3245      C3246   1.403       .  A
C3246      F3250   1.358       .  S
C3247      C3252   1.406       .  A
C3247      C3256   1.403       .  A
C3252      C3253   1.400       .  A
C3252      F3257   1.358       .  S
C3253      C3254   1.408       .  A
C3253      H3258   1.083       .  S
C3254      C3255   1.410       .  A
C3255      C3256   1.397       .  A
C3255      F3259   1.357       .  S
C3256      H3260   1.083       .  S
C3261      C3262   1.408       .  A
C3261      C3266   1.402       .  A
C3261      H3271   1.083       .  S
C3262      C3263   1.407       .  A
C3262      C3267   1.484       .  S
C3263      C3264   1.392       .  A
C3263      F3268   1.358       .  S
C3264      C3265   1.401       .  A
C3264      H3269   1.084       .  S
C3265      C3266   1.406       .  A
C3266      F3270   1.357       .  S
C3267      C3272   1.408       .  A
C3267      C3276   1.406       .  A
C3272      C3273   1.399       .  A
C3272      F3277   1.357       .  S
C3273      C3274   1.404       .  A
C3273      H3278   1.083       .  S
C3274      C3275   1.402       .  A
C3275      C3276   1.395       .  A
C3275      F3279   1.357       .  S
C3276      H3280   1.083       .  S
C3281      C3282   1.405       .  A
C3281      C3286   1.397       .  A
C3281      H3291   1.083       .  S
C3282      C3283   1.408       .  A
C3282      C3287   1.483       .  S
C3283      C3284   1.398       .  A
C3283      F3288   1.357       .  S
C3284      C3285   1.401       .  A
C3284      H3289   1.081       .  S
C3285      C3286   1.404       .  A
C3286      F3290   1.357       .  S
C3287      C3292   1.408       .  A
C3287      C3296   1.405       .  A
C3292      C3293   1.399       .  A
C3292      F3297   1.357       .  S
C3293      C3294   1.401       .  A
C3293      H3298   1.083       .  S
C3294      C3295   1.403       .  A
C3295      C3296   1.397       .  A
C3295      F3299   1.357       .  S
C3296      H3300   1.083       .  S
C3301      C3302   1.405       .  A
C3301      C3306   1.395       .  A
C3301      H3311   1.083       .  S
C3302      C3303   1.409       .  A
C3302      C3307   1.485       .  S
C3303      C3304   1.400       .  A
C3303      F3308   1.357       .  S
C3304      C3305   1.404       .  A
C3304      H3309   1.083       .  S
C3305      C3306   1.404       .  A
C3306      F3310   1.357       .  S
C3307      C3312   1.409       .  A
C3307      C3316   1.405       .  A
C3312      C3313   1.398       .  A
C3312      F3317   1.358       .  S
C3313      C3314   1.403       .  A
C3313      H3318   1.083       .  S
C3314      C3315   1.407       .  A
C3315      C3316   1.399       .  A
C3315      F3319   1.357       .  S
C3316      H3320   1.083       .  S
C3321      C3322   1.404       .  A
C3321      C3326   1.397       .  A
C3321      H3331   1.083       .  S
C3322      C3323   1.406       .  A
C3322      C3327   1.485       .  S
C3323      C3324   1.397       .  A
C3323      F3328   1.357       .  S
C3324      C3325   1.406       .  A
C3324      H3329   1.080       .  S
C3325      C3326   1.410       .  A
C3326      F3330   1.357       .  S
C3327      C3332   1.407       .  A
C3327      C3336   1.405       .  A
C3332      C3333   1.397       .  A
C3332      F3337   1.357       .  S
C3333      C3334   1.406       .  A
C3333      H3338   1.083       .  S
C3334      C3335   1.408       .  A
C3335      C3336   1.398       .  A
C3335      F3339   1.357       .  S
C3336      H3340   1.083       .  S
C3341      C3342   1.406       .  A
C3341      C3346   1.399       .  A
C3341      H3351   1.083       .  S
C3342      C3343   1.410       .  A
C3342      C3347   1.486       .  S
C3343      C3344   1.399       .  A
C3343      F3348   1.358       .  S
C3344      C3345   1.401       .  A
C3344      H3349   1.083       .  S
C3345      C3346   1.404       .  A
C3346      F3350   1.357       .  S
C3347      C3352   1.410       .  A
C3347      C3356   1.405       .  A
C3352      C3353   1.401       .  A
C3352      F3357   1.357       .  S
C3353      C3354   1.403       .  A
C3353      H3358   1.083       .  S
C3354      C3355   1.404       .  A
C3355      C3356   1.396       .  A
C3355      F3359   1.357       .  S
C3356      H3360   1.083       .  S
C3361      C3362   1.407       .  A
C3361      C3366   1.399       .  A
C3361      H3371   1.083       .  S
C3362      C3363   1.408       .  A
C3362      C3367   1.486       .  S
C3363      C3364   1.396       .  A
C3363      F3368   1.357       .  S
C3364      C3365   1.403       .  A
C3364      H3369   1.084       .  S
C3365      C3366   1.405       .  A
C3366      F3370   1.357       .  S
C3367      C3372   1.408       .  A
C3367      C3376   1.406       .  A
C3372      C3373   1.398       .  A
C3372      F3377   1.357       .  S
C3373      C3374   1.404       .  A
C3373      H3378   1.083       .  S
C3374      C3375   1.406       .  A
C3375      C3376   1.397       .  A
C3375      F3379   1.358       .  S
C3376      H3380   1.083       .  S
C3381      C3382   1.407       .  A
C3381      C3386   1.399       .  A
C3381      H3391   1.083       .  S
C3382      C3383   1.409       .  A
C3382      C3387   1.491       .  S
C3383      C3384   1.399       .  A
C3383      F3388   1.358       .  S
C3384      C3385   1.406       .  A
C3384      H3389   1.083       .  S
C3385      C3386   1.406       .  A
C3386      F3390   1.357       .  S
C3387      C3392   1.410       .  A
C3387      C3396   1.406       .  A
C3392      C3393   1.399       .  A
C3392      F3397   1.357       .  S
C3393      C3394   1.404       .  A
C3393      H3398   1.082       .  S
C3394      C3395   1.407       .  A
C3395      C3396   1.398       .  A
C3395      F3399   1.358       .  S
C3396      H3400   1.083       .  S
C3401      C3402   1.406       .  A
C3401      C3406   1.397       .  A
C3401      H3411   1.083       .  S
C3402      C3403   1.409       .  A
C3402      C3407   1.487       .  S
C3403      C3404   1.397       .  A
C3403      F3408   1.357       .  S
C3404      C3405   1.403       .  A
C3404      H3409   1.083       .  S
C3405      C3406   1.406       .  A
C3406      F3410   1.357       .  S
C3407      C3412   1.410       .  A
C3407      C3416   1.407       .  A
C3412      C3413   1.398       .  A
C3412      F3417   1.358       .  S
C3413      C3414   1.401       .  A
C3413      H3418   1.083       .  S
C3414      C3415   1.403       .  A
C3415      C3416   1.397       .  A
C3415      F3419   1.357       .  S
C3416      H3420   1.083       .  S
C3421      C3422   1.406       .  A
C3421      C3426   1.399       .  A
C3421      H3431   1.083       .  S
C3422      C3423   1.408       .  A
C3422      C3427   1.484       .  S
C3423      C3424   1.398       .  A
C3423      F3428   1.358       .  S
C3424      C3425   1.401       .  A
C3424      H3429   1.083       .  S
C3425      C3426   1.403       .  A
C3426      F3430   1.357       .  S
C3427      C3432   1.406       .  A
C3427      C3436   1.404       .  A
C3432      C3433   1.397       .  A
C3432      F3437   1.358       .  S
C3433      C3434   1.407       .  A
C3433      H3438   1.083       .  S
C3434      C3435   1.410       .  A
C3435      C3436   1.399       .  A
C3435      F3439   1.357       .  S
C3436      H3440   1.083       .  S
C3441      C3442   1.403       .  A
C3441      C3446   1.397       .  A
C3441      H3451   1.083       .  S
C3442      C3443   1.407       .  A
C3442      C3447   1.482       .  S
C3443      C3444   1.402       .  A
C3443      F3448   1.357       .  S
C3444      C3445   1.405       .  A
C3444      H3449   1.083       .  S
C3445      C3446   1.405       .  A
C3446      F3450   1.358       .  S
C3447      C3452   1.405       .  A
C3447      C3456   1.404       .  A
C3452      C3453   1.398       .  A
C3452      F3457   1.358       .  S
C3453      C3454   1.407       .  A
C3453      H3458   1.083       .  S
C3454      C3455   1.411       .  A
C3455      C3456   1.401       .  A
C3455      F3459   1.357       .  S
C3456      H3460   1.083       .  S
C3461      C3462   1.407       .  A
C3461      C3466   1.400       .  A
C3461      H3471   1.083       .  S
C3462      C3463   1.409       .  A
C3462      C3467   1.488       .  S
C3463      C3464   1.396       .  A
C3463      F3468   1.357       .  S
C3464      C3465   1.402       .  A
C3464      H3469   1.082       .  S
C3465      C3466   1.406       .  A
C3466      F3470   1.357       .  S
C3467      C3472   1.409       .  A
C3467      C3476   1.407       .  A
C3472      C3473   1.400       .  A
C3472      F3477   1.357       .  S
C3473      C3474   1.404       .  A
C3473      H3478   1.083       .  S
C3474      C3475   1.405       .  A
C3475      C3476   1.396       .  A
C3475      F3479   1.358       .  S
C3476      H3480   1.083       .  S
C3481      C3482   1.406       .  A
C3481      C3486   1.396       .  A
C3481      H3491   1.083       .  S
C3482      C3483   1.408       .  A
C3482      C3487   1.485       .  S
C3483      C3484   1.398       .  A
C3483      F3488   1.357       .  S
C3484      C3485   1.404       .  A
C3484      H3489   1.083       .  S
C3485      C3486   1.406       .  A
C3486      F3490   1.358       .  S
C3487      C3492   1.408       .  A
C3487      C3496   1.406       .  A
C3492      C3493   1.396       .  A
C3492      F3497   1.357       .  S
C3493      C3494   1.401       .  A
C3493      H3498   1.083       .  S
C3494      C3495   1.405       .  A
C3495      C3496   1.399       .  A
C3495      F3499   1.357       .  S
C3496      H3500   1.083       .  S
C3501      C3502   1.405       .  A
C3501      C3506   1.396       .  A
C3501      H3511   1.083       .  S
C3502      C3503   1.409       .  A
C3502      C3507   1.491       .  S
C3503      C3504   1.401       .  A
C3503      F3508   1.357       .  S
C3504      C3505   1.407       .  A
C3504      H3509   1.081       .  S
C3505      C3506   1.407       .  A
C3506      F3510   1.357       .  S
C3507      C3512   1.408       .  A
C3507      C3516   1.405       .  A
C3512      C3513   1.402       .  A
C3512      F3517   1.357       .  S
C3513      C3514   1.408       .  A
C3513      H3518   1.083       .  S
C3514      C3515   1.409       .  A
C3515      C3516   1.398       .  A
C3515      F3519   1.357       .  S
C3516      H3520   1.083       .  S
C3521      C3522   1.406       .  A
C3521      C3526   1.399       .  A
C3521      H3531   1.083       .  S
C3522      C3523   1.408       .  A
C3522      C3527   1.481       .  S
C3523      C3524   1.396       .  A
C3523      F3528   1.358       .  S
C3524      C3525   1.401       .  A
C3524      H3529   1.083       .  S
C3525      C3526   1.403       .  A
C3526      F3530   1.356       .  S
C3527      C3532   1.408       .  A
C3527      C3536   1.405       .  A
C3532      C3533   1.397       .  A
C3532      F3537   1.358       .  S
C3533      C3534   1.401       .  A
C3533      H3538   1.083       .  S
C3534      C3535   1.403       .  A
C3535      C3536   1.399       .  A
C3535      F3539   1.357       .  S
C3536      H3540   1.083       .  S
C3541      C3542   1.407       .  A
C3541      C3546   1.402       .  A
C3541      H3551   1.083       .  S
C3542      C3543   1.408       .  A
C3542      C3547   1.489       .  S
C3543      C3544   1.398       .  A
C3543      F3548   1.357       .  S
C3544      C3545   1.403       .  A
C3544      H3549   1.083       .  S
C3545      C3546   1.407       .  A
C3546      F3550   1.357       .  S
C3547      C3552   1.408       .  A
C3547      C3556   1.406       .  A
C3552      C3553   1.401       .  A
C3552      F3557   1.357       .  S
C3553      C3554   1.404       .  A
C3553      H3558   1.083       .  S
C3554      C3555   1.406       .  A
C3555      C3556   1.399       .  A
C3555      F3559   1.358       .  S
C3556      H3560   1.083       .  S
C3561      C3562   1.406       .  A
C3561      C3566   1.399       .  A
C3561      H3571   1.083       .  S
C3562      C3563   1.407       .  A
C3562      C3567   1.492       .  S
C3563      C3564   1.401       .  A
C3563      F3568   1.357       .  S
C3564      C3565   1.408       .  A
C3564      H3569   1.081       .  S
C3565      C3566   1.408       .  A
C3566      F3570   1.357       .  S
C3567      C3572   1.407       .  A
C3567      C3576   1.408       .  A
C3572      C3573   1.396       .  A
C3572      F3577   1.357       .  S
C3573      C3574   1.406       .  A
C3573      H3578   1.083       .  S
C3574      C3575   1.410       .  A
C3575      C3576   1.405       .  A
C3575      F3579   1.357       .  S
C3576      H3580   1.083       .  S
C3581      C3582   1.405       .  A
C3581      C3586   1.399       .  A
C3581      H3591   1.083       .  S
C3582      C3583   1.407       .  A
C3582      C3587   1.480       .  S
C3583      C3584   1.396       .  A
C3583      F3588   1.358       .  S
C3584      C3585   1.401       .  A
C3584      H3589   1.083       .  S
C3585      C3586   1.403       .  A
C3586      F3590   1.357       .  S
C3587      C3592   1.408       .  A
C3587      C3596   1.404       .  A
C3592      C3593   1.400       .  A
C3592      F3597   1.358       .  S
C3593      C3594   1.403       .  A
C3593      H3598   1.083       .  S
C3594      C3595   1.402       .  A
C3595      C3596   1.394       .  A
C3595      F3599   1.356       .  S
C3596      H3600   1.083       .  S
C3601      C3602   1.403       .  A
C3601      C3606   1.399       .  A
C3601      H3611   1.083       .  S
C3602      C3603   1.406       .  A
C3602      C3607   1.481       .  S
C3603      C3604   1.401       .  A
C3603      F3608   1.357       .  S
C3604      C3605   1.404       .  A
C3604      H3609   1.081       .  S
C3605      C3606   1.405       .  A
C3606      F3610   1.357       .  S
C3607      C3612   1.404       .  A
C3607      C3616   1.402       .  A
C3612      C3613   1.399       .  A
C3612      F3617   1.357       .  S
C3613      C3614   1.408       .  A
C3613      H3618   1.083       .  S
C3614      C3615   1.413       .  A
C3615      C3616   1.401       .  A
C3615      F3619   1.357       .  S
C3616      H3620   1.083       .  S
C3621      C3622   1.408       .  A
C3621      C3626   1.399       .  A
C3621      H3631   1.083       .  S
C3622      C3623   1.411       .  A
C3622      C3627   1.493       .  S
C3623      C3624   1.402       .  A
C3623      F3628   1.357       .  S
C3624      C3625   1.401       .  A
C3624      H3629   1.083       .  S
C3625      C3626   1.402       .  A
C3626      F3630   1.357       .  S
C3627      C3632   1.410       .  A
C3627      C3636   1.406       .  A
C3632      C3633   1.403       .  A
C3632      F3637   1.357       .  S
C3633      C3634   1.405       .  A
C3633      H3638   1.083       .  S
C3634      C3635   1.407       .  A
C3635      C3636   1.399       .  A
C3635      F3639   1.358       .  S
C3636      H3640   1.083       .  S
C3641      C3642   1.407       .  A
C3641      C3646   1.399       .  A
C3641      H3651   1.083       .  S
C3642      C3643   1.409       .  A
C3642      C3647   1.486       .  S
C3643      C3644   1.396       .  A
C3643      F3648   1.357       .  S
C3644      C3645   1.398       .  A
C3644      H3649   1.082       .  S
C3645      C3646   1.402       .  A
C3646      F3650   1.357       .  S
C3647      C3652   1.409       .  A
C3647      C3656   1.406       .  A
C3652      C3653   1.399       .  A
C3652      F3657   1.358       .  S
C3653      C3654   1.403       .  A
C3653      H3658   1.083       .  S
C3654      C3655   1.403       .  A
C3655      C3656   1.396       .  A
C3655      F3659   1.357       .  S
C3656      H3660   1.083       .  S
C3661      C3662   1.402       .  A
C3661      C3666   1.397       .  A
C3661      H3671   1.083       .  S
C3662      C3663   1.406       .  A
C3662      C3667   1.483       .  S
C3663      C3664   1.402       .  A
C3663      F3668   1.358       .  S
C3664      C3665   1.408       .  A
C3664      H3669   1.083       .  S
C3665      C3666   1.411       .  A
C3666      F3670   1.357       .  S
C3667      C3672   1.407       .  A
C3667      C3676   1.405       .  A
C3672      C3673   1.398       .  A
C3672      F3677   1.357       .  S
C3673      C3674   1.404       .  A
C3673      H3678   1.083       .  S
C3674      C3675   1.404       .  A
C3675      C3676   1.399       .  A
C3675      F3679   1.357       .  S
C3676      H3680   1.083       .  S
C3681      C3682   1.405       .  A
C3681      C3686   1.398       .  A
C3681      H3691   1.083       .  S
C3682      C3683   1.406       .  A
C3682      C3687   1.480       .  S
C3683      C3684   1.398       .  A
C3683      F3688   1.357       .  S
C3684      C3685   1.402       .  A
C3684      H3689   1.083       .  S
C3685      C3686   1.405       .  A
C3686      F3690   1.357       .  S
C3687      C3692   1.403       .  A
C3687      C3696   1.404       .  A
C3692      C3693   1.395       .  A
C3692      F3697   1.358       .  S
C3693      C3694   1.407       .  A
C3693      H3698   1.083       .  S
C3694      C3695   1.411       .  A
C3695      C3696   1.401       .  A
C3695      F3699   1.357       .  S
C3696      H3700   1.083       .  S
C3701      C3702   1.405       .  A
C3701      C3706   1.395       .  A
C3701      H3711   1.083       .  S
C3702      C3703   1.408       .  A
C3702      C3707   1.481       .  S
C3703      C3704   1.397       .  A
C3703      F3708   1.357       .  S
C3704      C3705   1.402       .  A
C3704      H3709   1.083       .  S
C3705      C3706   1.403       .  A
C3706      F3710   1.357       .  S
C3707      C3712   1.406       .  A
C3707      C3716   1.405       .  A
C3712      C3713   1.396       .  A
C3712      F3717   1.358       .  S
C3713      C3714   1.405       .  A
C3713      H3718   1.083       .  S
C3714      C3715   1.407       .  A
C3715      C3716   1.398       .  A
C3715      F3719   1.357       .  S
C3716      H3720   1.083       .  S
C3721      C3722   1.405       .  A
C3721      C3726   1.398       .  A
C3721      H3731   1.083       .  S
C3722      C3723   1.407       .  A
C3722      C3727   1.486       .  S
C3723      C3724   1.400       .  A
C3723      F3728   1.357       .  S
C3724      C3725   1.406       .  A
C3724      H3729   1.082       .  S
C3725      C3726   1.406       .  A
C3726      F3730   1.357       .  S
C3727      C3732   1.407       .  A
C3727      C3736   1.404       .  A
C3732      C3733   1.400       .  A
C3732      F3737   1.358       .  S
C3733      C3734   1.406       .  A
C3733      H3738   1.083       .  S
C3734      C3735   1.409       .  A
C3735      C3736   1.399       .  A
C3735      F3739   1.357       .  S
C3736      H3740   1.083       .  S
C3741      C3742   1.406       .  A
C3741      C3746   1.397       .  A
C3741      H3751   1.083       .  S
C3742      C3743   1.409       .  A
C3742      C3747   1.486       .  S
C3743      C3744   1.401       .  A
C3743      F3748   1.357       .  S
C3744      C3745   1.403       .  A
C3744      H3749   1.083       .  S
C3745      C3746   1.402       .  A
C3746      F3750   1.357       .  S
C3747      C3752   1.408       .  A
C3747      C3756   1.404       .  A
C3752      C3753   1.401       .  A
C3752      F3757   1.357       .  S
C3753      C3754   1.405       .  A
C3753      H3758   1.083       .  S
C3754      C3755   1.407       .  A
C3755      C3756   1.397       .  A
C3755      F3759   1.358       .  S
C3756      H3760   1.083       .  S
C3761      C3762   1.405       .  A
C3761      C3766   1.399       .  A
C3761      H3771   1.083       .  S
C3762      C3763   1.406       .  A
C3762      C3767   1.479       .  S
C3763      C3764   1.395       .  A
C3763      F3768   1.358       .  S
C3764      C3765   1.401       .  A
C3764      H3769   1.083       .  S
C3765      C3766   1.404       .  A
C3766      F3770   1.357       .  S
C3767      C3772   1.407       .  A
C3767      C3776   1.405       .  A
C3772      C3773   1.400       .  A
C3772      F3777   1.357       .  S
C3773      C3774   1.402       .  A
C3773      H3778   1.083       .  S
C3774      C3775   1.403       .  A
C3775      C3776   1.396       .  A
C3775      F3779   1.357       .  S
C3776      H3780   1.083       .  S
C3781      C3782   1.406       .  A
C3781      C3786   1.397       .  A
C3781      H3791   1.082       .  S
C3782      C3783   1.411       .  A
C3782      C3787   1.492       .  S
C3783      C3784   1.400       .  A
C3783      F3788   1.357       .  S
C3784      C3785   1.405       .  A
C3784      H3789   1.083       .  S
C3785      C3786   1.408       .  A
C3786      F3790   1.358       .  S
C3787      C3792   1.412       .  A
C3787      C3796   1.407       .  A
C3792      C3793   1.400       .  A
C3792      F3797   1.357       .  S
C3793      C3794   1.403       .  A
C3793      H3798   1.083       .  S
C3794      C3795   1.404       .  A
C3795      C3796   1.397       .  A
C3795      F3799   1.357       .  S
C3796      H3800   1.082       .  S
C3801      C3802   1.404       .  A
C3801      C3806   1.402       .  A
C3801      H3811   1.083       .  S
C3802      C3803   1.404       .  A
C3802      C3807   1.480       .  S
C3803      C3804   1.397       .  A
C3803      F3808   1.357       .  S
C3804      C3805   1.403       .  A
C3804      H3809   1.083       .  S
C3805      C3806   1.408       .  A
C3806      F3810   1.357       .  S
C3807      C3812   1.404       .  A
C3807      C3816   1.402       .  A
C3812      C3813   1.400       .  A
C3812      F3817   1.357       .  S
C3813      C3814   1.408       .  A
C3813      H3818   1.083       .  S
C3814      C3815   1.411       .  A
C3815      C3816   1.399       .  A
C3815      F3819   1.357       .  S
C3816      H3820   1.083       .  S
C3821      C3822   1.405       .  A
C3821      C3826   1.397       .  A
C3821      H3831   1.083       .  S
C3822      C3823   1.407       .  A
C3822      C3827   1.481       .  S
C3823      C3824   1.395       .  A
C3823      F3828   1.357       .  S
C3824      C3825   1.402       .  A
C3824      H3829   1.083       .  S
C3825      C3826   1.405       .  A
C3826      F3830   1.358       .  S
C3827      C3832   1.408       .  A
C3827      C3836   1.404       .  A
C3832      C3833   1.397       .  A
C3832      F3837   1.357       .  S
C3833      C3834   1.402       .  A
C3833      H3838   1.083       .  S
C3834      C3835   1.404       .  A
C3835      C3836   1.395       .  A
C3835      F3839   1.357       .  S
C3836      H3840   1.083       .  S
C3841      C3842   1.402       .  A
C3841      C3846   1.400       .  A
C3841      H3851   1.083       .  S
C3842      C3843   1.403       .  A
C3842      C3847   1.474       .  S
C3843      C3844   1.396       .  A
C3843      F3848   1.358       .  S
C3844      C3845   1.404       .  A
C3844      H3849   1.083       .  S
C3845      C3846   1.408       .  A
C3846      F3850   1.357       .  S
C3847      C3852   1.401       .  A
C3847      C3856   1.401       .  A
C3852      C3853   1.397       .  A
C3852      F3857   1.358       .  S
C3853      C3854   1.409       .  A
C3853      H3858   1.083       .  S
C3854      C3855   1.411       .  A
C3855      C3856   1.399       .  A
C3855      F3859   1.357       .  S
C3856      H3860   1.083       .  S
C3861      C3862   1.403       .  A
C3861      C3866   1.396       .  A
C3861      H3871   1.083       .  S
C3862      C3863   1.406       .  A
C3862      C3867   1.479       .  S
C3863      C3864   1.399       .  A
C3863      F3868   1.357       .  S
C3864      C3865   1.404       .  A
C3864      H3869   1.083       .  S
C3865      C3866   1.407       .  A
C3866      F3870   1.358       .  S
C3867      C3872   1.405       .  A
C3867      C3876   1.402       .  A
C3872      C3873   1.397       .  A
C3872      F3877   1.357       .  S
C3873      C3874   1.405       .  A
C3873      H3878   1.083       .  S
C3874      C3875   1.412       .  A
C3875      C3876   1.398       .  A
C3875      F3879   1.358       .  S
C3876      H3880   1.083       .  S
C3881      C3882   1.407       .  A
C3881      C3886   1.397       .  A
C3881      H3891   1.082       .  S
C3882      C3883   1.411       .  A
C3882      C3887   1.491       .  S
C3883      C3884   1.397       .  A
C3883      F3888   1.357       .  S
C3884      C3885   1.403       .  A
C3884      H3889   1.082       .  S
C3885      C3886   1.406       .  A
C3886      F3890   1.356       .  S
C3887      C3892   1.412       .  A
C3887      C3896   1.409       .  A
C3892      C3893   1.397       .  A
C3892      F3897   1.357       .  S
C3893      C3894   1.401       .  A
C3893      H3898   1.083       .  S
C3894      C3895   1.401       .  A
C3895      C3896   1.397       .  A
C3895      F3899   1.357       .  S
C3896      H3900   1.082       .  S
C3901      C3902   1.403       .  A
C3901      C3906   1.397       .  A
C3901      H3911   1.083       .  S
C3902      C3903   1.408       .  A
C3902      C3907   1.485       .  S
C3903      C3904   1.402       .  A
C3903      F3908   1.357       .  S
C3904      C3905   1.405       .  A
C3904      H3909   1.083       .  S
C3905      C3906   1.407       .  A
C3906      F3910   1.357       .  S
C3907      C3912   1.406       .  A
C3907      C3916   1.405       .  A
C3912      C3913   1.398       .  A
C3912      F3917   1.357       .  S
C3913      C3914   1.407       .  A
C3913      H3918   1.083       .  S
C3914      C3915   1.410       .  A
C3915      C3916   1.401       .  A
C3915      F3919   1.357       .  S
C3916      H3920   1.083       .  S
C3921      C3922   1.402       .  A
C3921      C3926   1.397       .  A
C3921      H3931   1.083       .  S
C3922      C3923   1.406       .  A
C3922      C3927   1.481       .  S
C3923      C3924   1.403       .  A
C3923      F3928   1.357       .  S
C3924      C3925   1.406       .  A
C3924      H3929   1.083       .  S
C3925      C3926   1.408       .  A
C3926      F3930   1.357       .  S
C3927      C3932   1.405       .  A
C3927      C3936   1.402       .  A
C3932      C3933   1.401       .  A
C3932      F3937   1.358       .  S
C3933      C3934   1.409       .  A
C3933      H3938   1.083       .  S
C3934      C3935   1.411       .  A
C3935      C3936   1.399       .  A
C3935      F3939   1.357       .  S
C3936      H3940   1.083       .  S
C3941      C3942   1.407       .  A
C3941      C3946   1.399       .  A
C3941      H3951   1.083       .  S
C3942      C3943   1.409       .  A
C3942      C3947   1.487       .  S
C3943      C3944   1.399       .  A
C3943      F3948   1.357       .  S
C3944      C3945   1.403       .  A
C3944      H3949   1.083       .  S
C3945      C3946   1.404       .  A
C3946      F3950   1.357       .  S
C3947      C3952   1.408       .  A
C3947      C3956   1.406       .  A
C3952      C3953   1.399       .  A
C3952      F3957   1.357       .  S
C3953      C3954   1.405       .  A
C3953      H3958   1.083       .  S
C3954      C3955   1.406       .  A
C3955      C3956   1.398       .  A
C3955      F3959   1.358       .  S
C3956      H3960   1.083       .  S
