geometry optimzed in LAMMPS
_audit_creation_date              2020-11-30 
_audit_creation_method            'lammps2cif' 
_symmetry_space_group_name_H-M    'P1' 
_symmetry_Int_Tables_number       1 
_symmetry_cell_setting            triclinic 
loop_ 
_symmetry_equiv_pos_as_xyz 
  x,y,z 
_cell_length_a                    75.07229937 
_cell_length_b                    74.92011891181104 
_cell_length_c                    53.52235774120035 
_cell_angle_alpha                 90.11437078464695 
_cell_angle_beta                  89.94879445648408 
_cell_angle_gamma                 120.12621127091589 
loop_ 
_atom_site_label 
_atom_site_type_symbol 
_atom_site_fract_x 
_atom_site_fract_y 
_atom_site_fract_z 
_atom_site_charge 
N1          N  0.84842884  0.51272980  0.75727829    -0.26800
N2          N  0.84314893  0.50844812  0.73353124    -0.34600
C3          C  0.82448475  0.50633408  0.72996967     0.01600
C4          C  0.81748701  0.50923183  0.75257951     0.07600
C5          C  0.83300901  0.51324261  0.76958353    -0.05500
H6          H  0.81649223  0.50267888  0.71223822     0.08300
H7          H  0.83321973  0.51657593  0.78929024     0.09500
Cu8        Cu  0.86084591  0.50458783  0.70708283     0.44200
Cu9        Cu  0.87697849  0.51854706  0.77076005     0.42000
Cu10       Cu  0.91176070  0.51664880  0.72320425     0.43900
N11         N  0.87878868  0.49795271  0.68417562    -0.34100
N12         N  0.89777731  0.50254892  0.68965986    -0.28400
C13         C  0.90445587  0.49452161  0.67190004    -0.04500
C14         C  0.88872679  0.48419941  0.65473605     0.07700
C15         C  0.87274127  0.48674882  0.66308712     0.01500
H16         H  0.91909817  0.49500205  0.67233430     0.09200
H17         H  0.85749053  0.48018369  0.65510223     0.08200
N18         N  0.92034107  0.52728461  0.75962690    -0.35600
N19         N  0.90770859  0.52701691  0.77711744    -0.27800
C20         C  0.91833362  0.53428574  0.79859919    -0.03000
C21         C  0.93859987  0.53966976  0.79428120     0.05600
C22         C  0.93930919  0.53504240  0.76941404     0.03700
H23         H  0.91191485  0.53610520  0.81587862     0.08800
H24         H  0.95261207  0.53701048  0.75918048     0.07600
N25         N  0.83991171  0.31860205  0.43616378    -0.26800
N26         N  0.83426684  0.31852648  0.45960013    -0.34600
C27         C  0.81545959  0.30209494  0.46323435     0.01600
C28         C  0.80881491  0.29140757  0.44096994     0.07600
C29         C  0.82461068  0.30230694  0.42413901    -0.05500
H30         H  0.80725617  0.29824875  0.48082626     0.08300
H31         H  0.82527435  0.29826199  0.40488006     0.09500
Cu32       Cu  0.85185574  0.34076548  0.48577048     0.44200
Cu33       Cu  0.86907065  0.33953041  0.42264807     0.42000
Cu34       Cu  0.90462399  0.37391586  0.47011676     0.43900
N35         N  0.87139475  0.36634234  0.50681821    -0.34100
N36         N  0.89106773  0.37839909  0.50133061    -0.28400
C37         C  0.89929615  0.39455169  0.51713094    -0.04500
C38         C  0.88395045  0.39260077  0.53314356     0.07700
C39         C  0.86647603  0.37456246  0.52610969     0.01500
H40         H  0.91494255  0.40732225  0.51607446     0.09200
H41         H  0.85115245  0.36827808  0.53380296     0.08200
N42         N  0.91350066  0.36996799  0.43488656    -0.35600
N43         N  0.90056399  0.35858746  0.41702675    -0.27800
C44         C  0.91135488  0.36066756  0.39604647    -0.03000
C45         C  0.93201406  0.37373372  0.40118355     0.05600
C46         C  0.93282129  0.37925870  0.42592904     0.03700
H47         H  0.90469803  0.35292889  0.37855135     0.08800
H48         H  0.94640948  0.38967511  0.43651283     0.07600
N49         N  0.45850244  0.12158100  0.09847764    -0.26800
N50         N  0.46397092  0.12730111  0.12191468    -0.34600
C51         C  0.46514442  0.14556446  0.12591365     0.01600
C52         C  0.46043988  0.15182344  0.10389427     0.07600
C53         C  0.45632109  0.13629570  0.08680123    -0.05500
H54         H  0.46952638  0.15387513  0.14346532     0.08300
H55         H  0.45188756  0.13563231  0.06744370     0.09500
Cu56       Cu  0.47076642  0.11078684  0.14721812     0.44200
Cu57       Cu  0.45368132  0.09356843  0.08434347     0.42000
Cu58       Cu  0.45876433  0.05983796  0.13057558     0.43900
N59         N  0.47862239  0.09314092  0.16917685    -0.34100
N60         N  0.47366886  0.07398914  0.16370816    -0.28400
C61         C  0.48179519  0.06720109  0.18117259    -0.04500
C62         C  0.49257280  0.08304298  0.19813776     0.07700
C63         C  0.49025929  0.09920720  0.18990968     0.01500
H64         H  0.48092829  0.05234612  0.18073371     0.09200
H65         H  0.49700707  0.11448140  0.19801822     0.08200
N66         N  0.44830632  0.05128915  0.09410225    -0.35600
N67         N  0.44745315  0.06363975  0.07706391    -0.27800
C68         C  0.44125737  0.05337084  0.05519266    -0.03000
C69         C  0.43785197  0.03361617  0.05879240     0.05600
C70         C  0.44236071  0.03281405  0.08362181     0.03700
H71         H  0.43900277  0.05969041  0.03811850     0.08800
H72         H  0.44170723  0.01983357  0.09329986     0.07600
N73         N  0.66097501  0.13525432  0.41930214    -0.26800
N74         N  0.65869082  0.14144745  0.39701485    -0.34600
C75         C  0.67498901  0.16016521  0.39222309     0.01600
C76         C  0.68807110  0.16613577  0.41256378     0.07600
C77         C  0.67873755  0.15002375  0.42939340    -0.05500
H78         H  0.67682698  0.16899681  0.37548276     0.08300
H79         H  0.68438209  0.14913677  0.44767142     0.09500
Cu80       Cu  0.63301170  0.12502458  0.37461840     0.44200
Cu81       Cu  0.63991775  0.10689392  0.43481362     0.42000
Cu82       Cu  0.59663287  0.07373669  0.39436161     0.43900
N83         N  0.60558519  0.10642106  0.35606151    -0.34100
N84         N  0.59228584  0.08734114  0.36297753    -0.28400
C85         C  0.57613915  0.07939458  0.34718529    -0.04500
C86         C  0.57941871  0.09428684  0.32965488     0.07700
C87         C  0.59821989  0.11122888  0.33586327     0.01500
H88         H  0.56286372  0.06405603  0.34861480     0.09200
H89         H  0.60603106  0.12595912  0.32640585     0.08200
N90         N  0.60304604  0.06430040  0.42794241    -0.35600
N91         N  0.61802036  0.07653435  0.44339053    -0.27800
C92         C  0.61732392  0.06561177  0.46372299    -0.03000
C93         C  0.60138238  0.04553352  0.46060553     0.05600
C94         C  0.59275654  0.04523673  0.43774040     0.03700
H95         H  0.62810715  0.07162428  0.47911310     0.08800
H96         H  0.57986841  0.03212616  0.42888308     0.07600
N97         N  0.66312365  0.50533061  0.77226016    -0.26800
N98         N  0.66269399  0.49821722  0.79496245    -0.34600
C99         C  0.67949725  0.49643749  0.79823905     0.01600
C100        C  0.69095209  0.50255695  0.77647742     0.07600
C101        C  0.68011849  0.50806836  0.76035403    -0.05500
H102        H  0.68311992  0.49111984  0.81523000     0.08300
H103        H  0.68453920  0.51419434  0.74166000     0.09500
Cu104      Cu  0.63914655  0.49128808  0.82021337     0.44200
Cu105      Cu  0.64154403  0.51285295  0.75979442     0.42000
Cu106      Cu  0.60548014  0.51170457  0.80632807     0.43900
N107        N  0.61305361  0.48435761  0.84082058    -0.34100
N108        N  0.60097440  0.49211644  0.83625193    -0.28400
C109        C  0.58489673  0.48360275  0.85215875    -0.04500
C110        C  0.58693590  0.46973539  0.86726336     0.07700
C111        C  0.60493634  0.47063686  0.85955707     0.01500
H112        H  0.57224306  0.48662887  0.85198573     0.09200
H113        H  0.61139912  0.46157421  0.86660139     0.08200
N114        N  0.60987533  0.52540451  0.77129607    -0.35600
N115        N  0.62191942  0.52444175  0.75391768    -0.27800
C116        C  0.62001076  0.53298263  0.73275390    -0.03000
C117        C  0.60640077  0.53996430  0.73707241     0.05600
C118        C  0.60028366  0.53497499  0.76171123     0.03700
H119        H  0.62813838  0.53422981  0.71555444     0.08800
H120        H  0.58917811  0.53748025  0.77167344     0.07600
N121        N  0.46225356  0.30565245  0.08752334    -0.26800
N122        N  0.47114056  0.30697402  0.06574606    -0.34600
C123        C  0.47383011  0.29066817  0.06289328     0.01600
C124        C  0.46645895  0.27853627  0.08396847     0.07600
C125        C  0.45929461  0.28849676  0.09932876    -0.05500
H126        H  0.48029810  0.28766072  0.04643325     0.08300
H127        H  0.45158915  0.28315906  0.11712825     0.09500
Cu128      Cu  0.47825422  0.33025261  0.04029740     0.44200
Cu129      Cu  0.45227595  0.32601422  0.09788318     0.42000
Cu130      Cu  0.45519680  0.36194399  0.04902000     0.43900
N131        N  0.48434456  0.35486082  0.01750723    -0.34100
N132        N  0.47572491  0.36640344  0.02014019    -0.28400
C133        C  0.48378441  0.38158194  0.00294770    -0.04500
C134        C  0.49822206  0.37947599  0.98907145     0.07700
C135        C  0.49811320  0.36235523  0.99881005     0.01500
H136        H  0.48000597  0.39369567  0.00130824     0.09200
H137        H  0.50766173  0.35602670  0.99315693     0.08200
N138        N  0.43968159  0.35727393  0.08290493    -0.35600
N139        N  0.43987652  0.34534820  0.10101614    -0.27800
C140        C  0.43077921  0.34776683  0.12138062    -0.03000
C141        C  0.42422142  0.36154304  0.11577199     0.05600
C142        C  0.43003088  0.36722816  0.09120371     0.03700
H143        H  0.42930332  0.34024700  0.13912287     0.08800
H144        H  0.42847928  0.37867245  0.08064478     0.07600
N145        N  0.14092881  0.65389614  0.93926895    -0.26800
N146        N  0.14837716  0.65287761  0.96126329    -0.34600
C147        C  0.16748032  0.66914797  0.96387522     0.01600
C148        C  0.17244295  0.68086799  0.94240174     0.07600
C149        C  0.15529182  0.67076116  0.92712104    -0.05500
H150        H  0.17714830  0.67206901  0.98010888     0.08300
H151        H  0.15326328  0.67546949  0.90874690     0.09500
Cu152      Cu  0.13256690  0.62922281  0.98662384     0.44200
Cu153      Cu  0.11106873  0.63275708  0.92783930     0.42000
Cu154      Cu  0.07886340  0.59420852  0.97457070     0.43900
N155        N  0.11422659  0.60424344  0.00928368    -0.34100
N156        N  0.09434590  0.59163541  0.00539191    -0.28400
C157        C  0.08699179  0.57707779  0.02334167    -0.04500
C158        C  0.10310800  0.58067861  0.03909504     0.07700
C159        C  0.12011302  0.59796544  0.02957624     0.01500
H160        H  0.07124689  0.56450332  0.02440254     0.09200
H161        H  0.13567987  0.60537776  0.03676588     0.08200
N162        N  0.06804458  0.59820159  0.94040713    -0.35600
N163        N  0.07984323  0.61153759  0.92311621    -0.27800
C164        C  0.06826604  0.60929058  0.90285733    -0.03000
C165        C  0.04822815  0.59400358  0.90770294     0.05600
C166        C  0.04863207  0.58733332  0.93168125     0.03700
H167        H  0.07401002  0.61820095  0.88587454     0.08800
H168        H  0.03588306  0.57512397  0.94183311     0.07600
N169        N  0.13971355  0.45775960  0.26693858    -0.26800
N170        N  0.14794399  0.46808167  0.24607850    -0.34600
C171        C  0.16691267  0.47073500  0.24336380     0.01600
C172        C  0.17092940  0.46180508  0.26355335     0.07600
C173        C  0.15339355  0.45377284  0.27821294    -0.05500
H174        H  0.17700815  0.47858106  0.22777026     0.08300
H175        H  0.15057368  0.44521505  0.29542667     0.09500
Cu176      Cu  0.13322885  0.47808782  0.22182977     0.44200
Cu177      Cu  0.10976691  0.44863437  0.27789422     0.42000
Cu178      Cu  0.07960363  0.45918332  0.23255530     0.43900
N179        N  0.11573632  0.48636584  0.19994383    -0.34100
N180        N  0.09582558  0.47900985  0.20345469    -0.28400
C181        C  0.08900251  0.48747825  0.18654381    -0.04500
C182        C  0.10546977  0.50092008  0.17183175     0.07700
C183        C  0.12217125  0.49981323  0.18083725     0.01500
H184        H  0.07334081  0.48446603  0.18545815     0.09200
H185        H  0.13788129  0.50825080  0.17416375     0.08200
N186        N  0.06792491  0.44310047  0.26566810    -0.35600
N187        N  0.07895295  0.43994240  0.28250394    -0.27800
C188        C  0.06695590  0.43033066  0.30237942    -0.03000
C189        C  0.04746578  0.42719470  0.29769780     0.05600
C190        C  0.04860806  0.43539382  0.27427676     0.03700
H191        H  0.07206976  0.42595987  0.31896019     0.08800
H192        H  0.03643957  0.43619768  0.26446104     0.07600
N193        N  0.52852067  0.65619083  0.57627929    -0.26800
N194        N  0.52326429  0.65598811  0.55264483    -0.34600
C195        C  0.52140502  0.67264440  0.54823089     0.01600
C196        C  0.52532644  0.68369736  0.57019143     0.07600
C197        C  0.52974650  0.67283779  0.58764307    -0.05500
H198        H  0.51693393  0.67611820  0.53049798     0.08300
H199        H  0.53380818  0.67686204  0.60705427     0.09500
Cu200      Cu  0.51682521  0.63219137  0.52787099     0.44200
Cu201      Cu  0.53475702  0.63429248  0.59151628     0.42000
Cu202      Cu  0.52719877  0.59292343  0.54921869     0.43900
N203        N  0.50738948  0.60481875  0.50866788    -0.34100
N204        N  0.51146416  0.59047015  0.51628329    -0.28400
C205        C  0.50237330  0.57420293  0.50065927    -0.04500
C206        C  0.49189434  0.57846940  0.48253812     0.07700
C207        C  0.49536028  0.59796717  0.48822096     0.01500
H208        H  0.50254988  0.55995754  0.50304430     0.09200
H209        H  0.48915498  0.60634234  0.47860799     0.08200
N210        N  0.54110050  0.59783746  0.58409012    -0.35600
N211        N  0.54322339  0.61237638  0.59991383    -0.27800
C212        C  0.55225210  0.61088296  0.62094551    -0.03000
C213        C  0.55617916  0.59481019  0.61807052     0.05600
C214        C  0.54891504  0.58690558  0.59449712     0.03700
H215        H  0.55593139  0.62092844  0.63700430     0.08800
H216        H  0.54900538  0.57395272  0.58565586     0.07600
N217        N  0.31504744  0.44701112  0.28034954    -0.26800
N218        N  0.31657421  0.45291467  0.30394418    -0.34600
C219        C  0.30064006  0.45563213  0.30963852     0.01600
C220        C  0.28865286  0.45155672  0.28851860     0.07600
C221        C  0.29824161  0.44623478  0.27026693    -0.05500
H222        H  0.29841388  0.46094400  0.32755561     0.08300
H223        H  0.29329558  0.44199136  0.25111440     0.09500
Cu224      Cu  0.34132973  0.45937439  0.32666911     0.44200
Cu225      Cu  0.33560069  0.43961224  0.26334237     0.42000
Cu226      Cu  0.37753808  0.44572523  0.30406236     0.43900
N227        N  0.36939482  0.46899375  0.34371092    -0.34100
N228        N  0.38271259  0.46356461  0.33593628    -0.28400
C229        C  0.39999322  0.47353306  0.34978398    -0.04500
C230        C  0.39745069  0.48608185  0.36670991     0.07700
C231        C  0.37788052  0.48278199  0.36234225     0.01500
H232        H  0.41380093  0.47268992  0.34672820     0.09200
H233        H  0.37056205  0.49033122  0.37146463     0.08200
N234        N  0.37152844  0.43229360  0.26877041    -0.35600
N235        N  0.35695177  0.43067253  0.25344782    -0.27800
C236        C  0.35830889  0.42218360  0.23176105    -0.03000
C237        C  0.37440943  0.41820987  0.23368515     0.05600
C238        C  0.38236119  0.42479994  0.25739128     0.03700
H239        H  0.34824319  0.41900807  0.21587497     0.08800
H240        H  0.39533351  0.42450847  0.26571695     0.07600
N241        N  0.52020410  0.83421999  0.58652378    -0.26800
N242        N  0.50898026  0.82538813  0.60665483    -0.34600
C243        C  0.50667358  0.80650991  0.60935931     0.01600
C244        C  0.51666241  0.80311975  0.58986037     0.07600
C245        C  0.52503358  0.82095559  0.57563522    -0.05500
H246        H  0.49839401  0.79605243  0.62451108     0.08300
H247        H  0.53453891  0.82433663  0.55914732     0.09500
Cu248      Cu  0.49748113  0.83924865  0.63008151     0.44200
Cu249      Cu  0.53004592  0.86468575  0.57650673     0.42000
Cu250      Cu  0.52034452  0.89401471  0.62359494     0.43900
N251        N  0.48881826  0.85667486  0.65149549    -0.34100
N252        N  0.49789760  0.87697916  0.64983313    -0.28400
C253        C  0.48911944  0.88384804  0.66623805    -0.04500
C254        C  0.47362863  0.86702107  0.67857867     0.07700
C255        C  0.47382568  0.85001764  0.66879534     0.01500
H256        H  0.49337244  0.89985487  0.66856294     0.09200
H257        H  0.46393232  0.83402704  0.67393736     0.08200
N258        N  0.53763451  0.90689946  0.59164122    -0.35600
N259        N  0.54029527  0.89617077  0.57384327    -0.27800
C260        C  0.55021063  0.90885182  0.55456471    -0.03000
C261        C  0.55406916  0.92845746  0.56068496     0.05600
C262        C  0.54598673  0.92666113  0.58432725     0.03700
H263        H  0.55406191  0.90407930  0.53726862     0.08800
H264        H  0.54532458  0.93861260  0.59496118     0.07600
N265        N  0.32741012  0.83041683  0.91528060    -0.26800
N266        N  0.32575183  0.82406467  0.89188145    -0.34600
C267        C  0.30865674  0.80549395  0.88953425     0.01600
C268        C  0.29915945  0.79975202  0.91256910     0.07600
C269        C  0.31147034  0.81586610  0.92853862    -0.05500
H270        H  0.30343911  0.79687898  0.87224118     0.08300
H271        H  0.30866211  0.81727492  0.94807603     0.09500
Cu272      Cu  0.34667652  0.84077885  0.86402669     0.44200
Cu273      Cu  0.35020749  0.85951765  0.92711539     0.42000
Cu274      Cu  0.38568295  0.89291740  0.87912819     0.43900
N275        N  0.37076665  0.85929150  0.84034073    -0.34100
N276        N  0.38503589  0.87843303  0.84583360    -0.28400
C277        C  0.39919711  0.88576008  0.82750801    -0.04500
C278        C  0.39358166  0.87043068  0.80970894     0.07700
C279        C  0.37549363  0.85388706  0.81841559     0.01500
H280        H  0.41297051  0.90080926  0.82769727     0.09200
H281        H  0.36678724  0.83878724  0.80989909     0.08200
N282        N  0.38415132  0.90288308  0.91480379    -0.35600
N283        N  0.37180220  0.89057047  0.93249735    -0.27800
C284        C  0.37485450  0.90167922  0.95345477    -0.03000
C285        C  0.38969267  0.92194837  0.94864687     0.05600
C286        C  0.39521407  0.92217793  0.92396765     0.03700
H287        H  0.36653641  0.89551541  0.97073823     0.08800
H288        H  0.40650967  0.93535200  0.91346537     0.07600
C289        C  0.41488692  0.86019138  0.75715515     0.30300
C290        C  0.41698209  0.84786105  0.73895817    -0.36000
C291        C  0.43459679  0.85778426  0.72387864     0.16300
C292        C  0.44898711  0.87848352  0.72627785     0.22100
C293        C  0.44687704  0.89080852  0.74443959    -0.34200
C294        C  0.42941026  0.88083072  0.75971769     0.16200
O295        O  0.40012969  0.85391272  0.77399668    -0.26200
C296        C  0.40532426  0.87072947  0.78756824     0.06000
C297        C  0.42338261  0.88794923  0.77950706    -0.31100
O298        O  0.46443322  0.88450126  0.71050023    -0.22900
C299        C  0.45999459  0.86739934  0.69800462    -0.02900
C300        C  0.44161858  0.85028192  0.70552007    -0.17300
H301        H  0.40589099  0.83157571  0.73705539     0.20700
H302        H  0.45826809  0.90695730  0.74680877     0.19100
H303        H  0.43118796  0.90333222  0.78741728     0.19000
H304        H  0.43453945  0.83461381  0.69855554     0.14900
C305        C  0.52462606  0.73005722  0.56578171     0.30300
C306        C  0.52586450  0.74731107  0.55380428    -0.36000
C307        C  0.52292972  0.76088117  0.56905555     0.16300
C308        C  0.51870856  0.75749541  0.59426481     0.22100
C309        C  0.51775032  0.74040333  0.60629963    -0.34200
C310        C  0.52102729  0.72702802  0.59113656     0.16200
O311        O  0.52658864  0.71525945  0.55508137    -0.26200
C312        C  0.52454309  0.70276433  0.57388734     0.06000
C313        C  0.52114407  0.70935628  0.59678449    -0.31100
O314        O  0.51588629  0.77180488  0.60480408    -0.22900
C315        C  0.51861614  0.78470073  0.58620519    -0.02900
C316        C  0.52313722  0.77875087  0.56353068    -0.17300
H317        H  0.52885854  0.74994048  0.53397779     0.20700
H318        H  0.51462729  0.73770491  0.62609747     0.19100
H319        H  0.51867931  0.70196443  0.61481817     0.19000
H320        H  0.52580641  0.78628689  0.54556913     0.14900
C321        C  0.45418426  0.55102506  0.43712600     0.30300
C322        C  0.43676187  0.54594989  0.42252512    -0.36000
C323        C  0.42920430  0.52793618  0.40811386     0.16300
C324        C  0.43837392  0.51592665  0.40763421     0.22100
C325        C  0.45575049  0.52094814  0.42235865    -0.34200
C326        C  0.46308087  0.53876318  0.43716776     0.16200
O327        O  0.46338884  0.56681839  0.45259893    -0.26200
C328        C  0.47822963  0.56452225  0.46293146     0.06000
C329        C  0.47875527  0.54731714  0.45407697    -0.31100
O330        O  0.42864856  0.49971630  0.39280908    -0.24100
C331        C  0.41288602  0.50123927  0.38400736    -0.02900
C332        C  0.41245482  0.51846758  0.39292919    -0.17300
H333        H  0.42938748  0.55520134  0.42273107     0.20700
H334        H  0.46284536  0.51144205  0.42257843     0.19100
H335        H  0.48906132  0.54183112  0.45948831     0.19000
H336        H  0.40142818  0.52333458  0.38875643     0.14900
C337        C  0.21218956  0.45650586  0.28541238     0.30300
C338        C  0.22411987  0.45300005  0.30282132    -0.36000
C339        C  0.24210626  0.45400961  0.29344356     0.16300
C340        C  0.24773926  0.45787062  0.26861096     0.22100
C341        C  0.23602955  0.46169328  0.25137683    -0.34200
C342        C  0.21826618  0.46095745  0.26078487     0.16200
O343        O  0.19464309  0.45606149  0.28983353    -0.26200
C344        C  0.18964771  0.46054162  0.26777453     0.06000
C345        C  0.20383504  0.46379833  0.24910010    -0.31100
O346        O  0.26468388  0.45739391  0.26361948    -0.22900
C347        C  0.27021114  0.45346750  0.28558082    -0.02900
C348        C  0.25683590  0.45134545  0.30489377    -0.17300
H349        H  0.21966060  0.44963876  0.32223549     0.20700
H350        H  0.24040766  0.46490467  0.23192425     0.19100
H351        H  0.20341199  0.46741576  0.22962300     0.19000
H352        H  0.25764625  0.44792640  0.32435811     0.14900
C353        C  0.25064657  0.75485515  0.91204095     0.30300
C354        C  0.23254683  0.73902890  0.90121241    -0.36000
C355        C  0.21779524  0.72489481  0.91785450     0.16300
C356        C  0.22078673  0.72606382  0.94338011     0.22100
C357        C  0.23880761  0.74202854  0.95423940    -0.34200
C358        C  0.25344929  0.75633680  0.93760505     0.16200
O359        O  0.26639996  0.76972376  0.89996244    -0.26200
C360        C  0.27939016  0.78103770  0.91800063     0.06000
C361        C  0.27214333  0.77347774  0.94183556    -0.31100
O362        O  0.20523953  0.71083989  0.95535316    -0.22900
C363        C  0.19201090  0.69992230  0.93729553    -0.02900
C364        C  0.19895390  0.70800224  0.91358170    -0.17300
H365        H  0.23013581  0.73783176  0.88120427     0.20700
H366        H  0.24124328  0.74319550  0.97424383     0.19100
H367        H  0.27958814  0.77965435  0.95961350     0.19000
H368        H  0.19143933  0.70202167  0.89579007     0.14900
C369        C  0.09443585  0.52632706  0.12445400     0.30300
C370        C  0.08197495  0.53029772  0.10849841    -0.36000
C371        C  0.09238053  0.54591037  0.09069107     0.16300
C372        C  0.11358309  0.55701901  0.08894181     0.22100
C373        C  0.12601958  0.55303962  0.10485239    -0.34200
C374        C  0.11562109  0.53728488  0.12242392     0.16200
O375        O  0.08800679  0.51217879  0.14215415    -0.26200
C376        C  0.10530996  0.51402397  0.15143617     0.06000
C377        C  0.12295132  0.52940092  0.13985546    -0.31100
O378        O  0.12009194  0.57078611  0.07084744    -0.22900
C379        C  0.10285366  0.56839066  0.06068559    -0.02900
C380        C  0.08511584  0.55311552  0.07225763    -0.17300
H381        H  0.06533728  0.52165559  0.10968530     0.20700
H382        H  0.14264868  0.56148031  0.10343043     0.19100
H383        H  0.13886066  0.53408671  0.14369543     0.19000
H384        H  0.06922825  0.54803132  0.06770055     0.14900
C385        C  0.41026635  0.38095412  0.16709286     0.30300
C386        C  0.41092389  0.38693030  0.19203596    -0.36000
C387        C  0.39864641  0.39550309  0.19808242     0.16300
C388        C  0.38630009  0.39788287  0.18091263     0.22100
C389        C  0.38582655  0.39211022  0.15574872    -0.34200
C390        C  0.39839318  0.38374651  0.14958101     0.16200
O391        O  0.42054904  0.37257226  0.15756652    -0.26200
C392        C  0.41553497  0.37020676  0.13349744     0.06000
C393        C  0.40186007  0.37697189  0.12735128    -0.31100
O394        O  0.37588955  0.40604506  0.19099136    -0.22900
C395        C  0.38185149  0.40903496  0.21484625    -0.02900
C396        C  0.39602536  0.40279655  0.22019437    -0.17300
H397        H  0.42040856  0.38505198  0.20580677     0.20700
H398        H  0.37641038  0.39407062  0.14195719     0.19100
H399        H  0.39532534  0.37673552  0.10925049     0.19000
H400        H  0.40328564  0.40341096  0.23788399     0.14900
C401        C  0.59218180  0.55769909  0.68439596     0.30300
C402        C  0.58855029  0.55891777  0.65890957    -0.36000
C403        C  0.57976018  0.57103247  0.65283236     0.16300
C404        C  0.57521065  0.58157100  0.67053534     0.22100
C405        C  0.57877422  0.58028320  0.69606354    -0.34200
C406        C  0.58718411  0.56781587  0.70220149     0.16200
O407        O  0.59981080  0.54683666  0.69425941    -0.26200
C408        C  0.59942618  0.54976814  0.71873664     0.06000
C409        C  0.59167091  0.56264006  0.72480354    -0.31100
O410        O  0.56673870  0.59169504  0.66068079    -0.22900
C411        C  0.56562442  0.58737297  0.63639051    -0.02900
C412        C  0.57350691  0.57458539  0.63044883    -0.17300
H413        H  0.59198201  0.55068222  0.64484842     0.20700
H414        H  0.57487696  0.58811096  0.71018169     0.19100
H415        H  0.58968623  0.56748419  0.74315385     0.19000
H416        H  0.57429979  0.56859805  0.61232095     0.14900
C417        C  0.55899456  0.43170857  0.91212217     0.30300
C418        C  0.55434485  0.41474907  0.92743606    -0.36000
C419        C  0.53698191  0.40788430  0.94278061     0.16300
C420        C  0.52505182  0.41712765  0.94322411     0.22100
C421        C  0.52962382  0.43402268  0.92774232    -0.34200
C422        C  0.54694329  0.44082469  0.91224330     0.16200
O423        O  0.57460633  0.44070399  0.89646763    -0.26200
C424        C  0.57251479  0.45573519  0.88627660     0.06000
C425        C  0.55553166  0.45652456  0.89533248    -0.31100
O426        O  0.50977241  0.40839269  0.95944707    -0.22900
C427        C  0.51189083  0.39327605  0.96936468    -0.02900
C428        C  0.52853637  0.39222405  0.95963291    -0.17300
H429        H  0.56366133  0.40744993  0.92744268     0.20700
H430        H  0.52037650  0.44139374  0.92784046     0.19100
H431        H  0.55035953  0.46717255  0.89031485     0.19000
H432        H  0.53385475  0.38166873  0.96452985     0.14900
C433        C  0.57573524  0.97778718  0.53406805     0.30300
C434        C  0.58400982  0.99928223  0.53371824    -0.36000
C435        C  0.58820509  0.00850406  0.51000024     0.16300
C436        C  0.58412634  0.99725556  0.48817492     0.22100
C437        C  0.57623257  0.97586692  0.48854901    -0.34200
C438        C  0.57239131  0.96672094  0.51222572     0.16200
O439        O  0.56996834  0.96587408  0.55403945    -0.26200
C440        C  0.56315080  0.94700151  0.54485209     0.06000
C441        C  0.56441418  0.94662184  0.51896329    -0.31100
O442        O  0.58820964  0.00877398  0.46805951    -0.22900
C443        C  0.59538211  0.02772526  0.47704998    -0.02900
C444        C  0.59587494  0.02856492  0.50302764    -0.17300
H445        H  0.58676290  0.00814883  0.55071563     0.20700
H446        H  0.57307097  0.96693742  0.47153678     0.19100
H447        H  0.55947258  0.93337996  0.50683907     0.19000
H448        H  0.60058655  0.04188839  0.51494456     0.14900
C449        C  0.41182001  0.96983100  0.97942464     0.30300
C450        C  0.42194745  0.99144343  0.98167715    -0.36000
C451        C  0.42413821  0.99921566  0.00609885     0.16300
C452        C  0.41718574  0.98657415  0.02681921     0.22100
C453        C  0.40693441  0.96504583  0.02454472    -0.34200
C454        C  0.40445123  0.95729904  0.00019208     0.16200
O455        O  0.40786274  0.95914735  0.95847039    -0.26200
C456        C  0.39763792  0.93956345  0.96600127     0.06000
C457        C  0.39504730  0.93752018  0.99174455    -0.31100
O458        O  0.42116152  0.99699776  0.04788586    -0.22900
C459        C  0.43052579  0.01660104  0.04065935    -0.02900
C460        C  0.43274962  0.01896819  0.01484218    -0.17300
H461        H  0.42759267  0.00146806  0.96554532     0.20700
H462        H  0.40119593  0.95501732  0.04066590     0.19100
H463        H  0.38741279  0.92349390  0.00265961     0.19000
H464        H  0.43993218  0.03314407  0.00417757     0.14900
C465        C  0.46412505  0.23075441  0.07943164     0.30300
C466        C  0.46400908  0.21411051  0.06718283    -0.36000
C467        C  0.46204760  0.19808346  0.08255252     0.16300
C468        C  0.46060617  0.19856690  0.10823014     0.22100
C469        C  0.46043574  0.21507610  0.12044688    -0.34200
C470        C  0.46211953  0.23097227  0.10505170     0.16200
O471        O  0.46606336  0.24746955  0.06875020    -0.26200
C472        C  0.46502806  0.25842432  0.08771925     0.06000
C473        C  0.46249327  0.24889817  0.11076393    -0.31100
O474        O  0.45972069  0.18234990  0.11902350    -0.22900
C475        C  0.46033144  0.17119105  0.10001855    -0.02900
C476        C  0.46167125  0.18015448  0.07684713    -0.17300
H477        H  0.46546002  0.21374246  0.04709330     0.20700
H478        H  0.45920404  0.21554661  0.14055878     0.19100
H479        H  0.46138403  0.25449834  0.12902480     0.19000
H480        H  0.46277892  0.17455981  0.05858259     0.14900
C481        C  0.52931070  0.09640244  0.24542038     0.30300
C482        C  0.54643550  0.10988482  0.25983551    -0.36000
C483        C  0.55226016  0.10072631  0.27845971     0.16300
C484        C  0.54181915  0.07975084  0.28288053     0.22100
C485        C  0.52476844  0.06619781  0.26824418    -0.34200
C486        C  0.51909368  0.07535237  0.24932255     0.16200
O487        O  0.52123034  0.10175196  0.22714019    -0.26200
C488        C  0.50578299  0.08391566  0.21891515     0.06000
C489        C  0.50373405  0.06690787  0.23191406    -0.31100
O490        O  0.54984033  0.07463376  0.30156392    -0.22900
C491        C  0.56572107  0.09256345  0.30897677    -0.02900
C492        C  0.56797628  0.10929565  0.29521910    -0.17300
H493        H  0.55466539  0.12638260  0.25671630     0.20700
H494        H  0.51655472  0.04969932  0.27134479     0.19100
H495        H  0.49244129  0.05078409  0.22914917     0.19000
H496        H  0.57942210  0.12544203  0.29737749     0.14900
C497        C  0.97989489  0.39252674  0.37209324     0.30300
C498        C  0.00120630  0.40029731  0.37088166    -0.36000
C499        C  0.01012483  0.40619381  0.34711926     0.16300
C500        C  0.99889310  0.40480362  0.32605758     0.22100
C501        C  0.97752419  0.39673049  0.32720801    -0.34200
C502        C  0.96855285  0.39055077  0.35091586     0.16200
O503        O  0.96854073  0.38675859  0.39249179    -0.26200
C504        C  0.94963703  0.38068913  0.38422345     0.06000
C505        C  0.94866103  0.38256764  0.35849729    -0.31100
O506        O  0.01049654  0.41194278  0.30594042    -0.22900
C507        C  0.02935864  0.41774489  0.31416343    -0.02900
C508        C  0.03005853  0.41445652  0.33961977    -0.17300
H509        H  0.01023204  0.40184468  0.38735505     0.20700
H510        H  0.96855674  0.39552772  0.31080768     0.19100
H511        H  0.93537390  0.37920672  0.34721091     0.19000
H512        H  0.04335969  0.41806112  0.35101048     0.14900
C513        C  0.76469048  0.24758757  0.41831501     0.30300
C514        C  0.75047642  0.23447076  0.40037910    -0.36000
C515        C  0.73411353  0.21585956  0.40944068     0.16300
C516        C  0.73201695  0.21044752  0.43436369     0.22100
C517        C  0.74604620  0.22366771  0.45230505    -0.34200
C518        C  0.76223852  0.24234325  0.44330254     0.16200
O519        O  0.78139211  0.26554645  0.41403341    -0.26200
C520        C  0.78952583  0.27194086  0.43663606     0.06000
C521        C  0.77820900  0.25818648  0.45554418    -0.31100
O522        O  0.71577747  0.19220278  0.43868647    -0.22900
C523        C  0.70721330  0.18589892  0.41629253    -0.02900
C524        C  0.71791566  0.20000419  0.39737417    -0.17300
H525        H  0.75210067  0.23845029  0.38075996     0.20700
H526        H  0.74446891  0.21965302  0.47191060     0.19100
H527        H  0.78154248  0.25946533  0.47534783     0.19000
H528        H  0.71432906  0.19871910  0.37764289     0.14900
C529        C  0.97232759  0.55674182  0.84565453     0.30300
C530        C  0.97812819  0.55838169  0.87088515    -0.36000
C531        C  0.99936029  0.56993530  0.87579799     0.16300
C532        C  0.01385787  0.57951211  0.85721815     0.22100
C533        C  0.00807482  0.57775317  0.83200924    -0.34200
C534        C  0.98690211  0.56590947  0.82706584     0.16200
O535        O  0.95337001  0.54647922  0.83673648    -0.26200
C536        C  0.95589737  0.54887901  0.81209776     0.06000
C537        C  0.97643242  0.56076669  0.80503217    -0.31100
O538        O  0.03284982  0.58947010  0.86597163    -0.22900
C539        C  0.03054864  0.58605319  0.89046880    -0.02900
C540        C  0.01004074  0.57396538  0.89765394    -0.17300
H541        H  0.96689955  0.55097108  0.88561757     0.20700
H542        H  0.01932731  0.58490017  0.81724174     0.19100
H543        H  0.98270333  0.56509102  0.78637057     0.19000
H544        H  0.00391953  0.56885261  0.91623792     0.14900
C545        C  0.76997381  0.50745144  0.74951590     0.30300
C546        C  0.75333554  0.50767806  0.73786814    -0.36000
C547        C  0.73772485  0.50603542  0.75378770     0.16300
C548        C  0.73832630  0.50402993  0.77935776     0.22100
C549        C  0.75503153  0.50395952  0.79100381    -0.34200
C550        C  0.77076101  0.50586830  0.77513053     0.16200
O551        O  0.78622302  0.50877893  0.73826473    -0.26200
C552        C  0.79767276  0.50826988  0.75692883     0.06000
C553        C  0.78884802  0.50651532  0.78030157    -0.31100
O554        O  0.72197127  0.50243306  0.79063533    -0.22900
C555        C  0.71081886  0.50362370  0.77209802    -0.02900
C556        C  0.71988449  0.50593916  0.74874108    -0.17300
H557        H  0.75264230  0.50909202  0.71781931     0.20700
H558        H  0.75573888  0.50257424  0.81105329     0.19100
H559        H  0.79477955  0.50561691  0.79838911     0.19000
H560        H  0.71409414  0.50718308  0.73070443     0.14900
C561        C  0.89725808  0.45650748  0.60798674     0.30300
C562        C  0.90875509  0.45057676  0.59300232    -0.36000
C563        C  0.89734119  0.43346360  0.57743002     0.16300
C564        C  0.87608329  0.42281367  0.57679038     0.22100
C565        C  0.86460438  0.42893367  0.59146139    -0.34200
C566        C  0.87601852  0.44614430  0.60684475     0.16200
O567        O  0.90467307  0.47149472  0.62470645    -0.26200
C568        C  0.88795428  0.47084720  0.63412576     0.06000
C569        C  0.86971933  0.45547261  0.62359476    -0.31100
O570        O  0.86856711  0.40694037  0.56138641    -0.22900
C571        C  0.88522767  0.40754105  0.55186756    -0.02900
C572        C  0.90356502  0.42374711  0.56108672    -0.17300
H573        H  0.92541269  0.45856896  0.59367829     0.20700
H574        H  0.84793241  0.42071368  0.59111284     0.19100
H575        H  0.85406181  0.45126038  0.62828390     0.19000
H576        H  0.91917057  0.42766460  0.55657668     0.14900
loop_ 
_geom_bond_atom_site_label_1 
_geom_bond_atom_site_label_2 
_geom_bond_distance 
_geom_bond_site_symmetry_2 
_ccdc_geom_bond_type 
N1            N2   1.322       .  A
N1            C5   1.349       .  A
N1           Cu9   2.090       .  S
N2            C3   1.342       .  A
N2           Cu8   2.057       .  S
C3            C4   1.378       .  A
C3            H6   1.082       .  S
C4            C5   1.388       .  A
C4          C552   1.471       .  S
C5            H7   1.082       .  S
Cu8          N11   2.057       .  S
Cu9          N19   2.091       .  S
Cu10         N12   2.079       .  S
Cu10         N18   2.081       .  S
N11          N12   1.321       .  A
N11          C15   1.341       .  A
N12          C13   1.348       .  A
C13          C14   1.385       .  A
C13          H16   1.082       .  S
C14          C15   1.380       .  A
C14         C568   1.469       .  S
C15          H17   1.082       .  S
N18          N19   1.325       .  A
N18          C22   1.345       .  A
N19          C20   1.348       .  A
C20          C21   1.384       .  A
C20          H23   1.082       .  S
C21          C22   1.382       .  A
C21         C536   1.474       .  S
C22          H24   1.082       .  S
N25          N26   1.323       .  A
N25          C29   1.347       .  A
N25         Cu33   2.081       .  S
N26          C27   1.343       .  A
N26         Cu32   2.066       .  S
C27          C28   1.381       .  A
C27          H30   1.082       .  S
C28          C29   1.383       .  A
C28         C520   1.469       .  S
C29          H31   1.082       .  S
Cu32         N35   2.065       .  S
Cu33         N43   2.081       .  S
Cu34         N36   2.068       .  S
Cu34         N42   2.069       .  S
N35          N36   1.321       .  A
N35          C39   1.344       .  A
N36          C37   1.344       .  A
C37          C38   1.383       .  A
C37          H40   1.082       .  S
C38          C39   1.381       .  A
C38         C571   1.468       .  S
C39          H41   1.082       .  S
N42          N43   1.323       .  A
N42          C46   1.343       .  A
N43          C44   1.347       .  A
C44          C45   1.384       .  A
C44          H47   1.082       .  S
C45          C46   1.379       .  A
C45         C504   1.468       .  S
C46          H48   1.082       .  S
N49          N50   1.322       .  A
N49          C53   1.348       .  A
N49         Cu57   2.083       .  S
N50          C51   1.343       .  A
N50         Cu56   2.066       .  S
C51          C52   1.379       .  A
C51          H54   1.082       .  S
C52          C53   1.386       .  A
C52         C475   1.470       .  S
C53          H55   1.082       .  S
Cu56         N59   2.066       .  S
Cu57         N67   2.084       .  S
Cu58         N60   2.080       .  S
Cu58         N66   2.081       .  S
N59          N60   1.321       .  A
N59          C63   1.342       .  A
N60          C61   1.349       .  A
C61          C62   1.386       .  A
C61          H64   1.082       .  S
C62          C63   1.380       .  A
C62         C488   1.470       .  S
C63          H65   1.082       .  S
N66          N67   1.325       .  A
N66          C70   1.344       .  A
N67          C68   1.348       .  A
C68          C69   1.384       .  A
C68          H71   1.082       .  S
C69          C70   1.380       .  A
C69         C459   1.470       .  S
C70          H72   1.082       .  S
N73          N74   1.323       .  A
N73          C77   1.346       .  A
N73         Cu81   2.082       .  S
N74          C75   1.345       .  A
N74         Cu80   2.070       .  S
C75          C76   1.382       .  A
C75          H78   1.082       .  S
C76          C77   1.383       .  A
C76         C523   1.470       .  S
C77          H79   1.082       .  S
Cu80         N83   2.070       .  S
Cu81         N91   2.082       .  S
Cu82         N84   2.076       .  S
Cu82         N90   2.076       .  S
N83          N84   1.321       .  A
N83          C87   1.344       .  A
N84          C85   1.347       .  A
C85          C86   1.383       .  A
C85          H88   1.082       .  S
C86          C87   1.384       .  A
C86         C491   1.472       .  S
C87          H89   1.082       .  S
N90          N91   1.324       .  A
N90          C94   1.344       .  A
N91          C92   1.348       .  A
C92          C93   1.384       .  A
C92          H95   1.082       .  S
C93          C94   1.380       .  A
C93         C443   1.469       .  S
C94          H96   1.082       .  S
N97          N98   1.322       .  A
N97         C101   1.346       .  A
N97        Cu105   2.075       .  S
N98          C99   1.345       .  A
N98        Cu104   2.073       .  S
C99         C100   1.382       .  A
C99         H102   1.082       .  S
C100        C101   1.384       .  A
C100        C555   1.472       .  S
C101        H103   1.082       .  S
Cu104       N107   2.074       .  S
Cu105       N115   2.076       .  S
Cu106       N108   2.084       .  S
Cu106       N114   2.084       .  S
N107        N108   1.323       .  A
N107        C111   1.345       .  A
N108        C109   1.348       .  A
C109        C110   1.386       .  A
C109        H112   1.082       .  S
C110        C111   1.381       .  A
C110        C424   1.473       .  S
C111        H113   1.082       .  S
N114        N115   1.323       .  A
N114        C118   1.348       .  A
N115        C116   1.345       .  A
C116        C117   1.381       .  A
C116        H119   1.082       .  S
C117        C118   1.385       .  A
C117        C408   1.472       .  S
C118        H120   1.082       .  S
N121        N122   1.321       .  A
N121        C125   1.348       .  A
N121       Cu129   2.083       .  S
N122        C123   1.343       .  A
N122       Cu128   2.063       .  S
C123        C124   1.379       .  A
C123        H126   1.082       .  S
C124        C125   1.386       .  A
C124        C472   1.470       .  S
C125        H127   1.082       .  S
Cu128       N131   2.063       .  S
Cu129       N139   2.084       .  S
Cu130       N132   2.087       .  S
Cu130       N138   2.088       .  S
N131        N132   1.322       .  A
N131        C135   1.343   1_554  A
N132        C133   1.349       .  A
C133        C134   1.386   1_554  A
C133        H136   1.082       .  S
C134        C135   1.382       .  A
C134        C427   1.474       .  S
C135        H137   1.082       .  S
N138        N139   1.325       .  A
N138        C142   1.349       .  A
N139        C140   1.345       .  A
C140        C141   1.382       .  A
C140        H143   1.082       .  S
C141        C142   1.384       .  A
C141        C392   1.472       .  S
C142        H144   1.082       .  S
N145        N146   1.322       .  A
N145        C149   1.348       .  A
N145       Cu153   2.084       .  S
N146        C147   1.344       .  A
N146       Cu152   2.071       .  S
C147        C148   1.380       .  A
C147        H150   1.082       .  S
C148        C149   1.386       .  A
C148        C363   1.472       .  S
C149        H151   1.082       .  S
Cu152       N155   2.071   1_556  S
Cu153       N163   2.084       .  S
Cu154       N156   2.083   1_556  S
Cu154       N162   2.084       .  S
N155        N156   1.322       .  A
N155        C159   1.344       .  A
N156        C157   1.348       .  A
C157        C158   1.386       .  A
C157        H160   1.082       .  S
C158        C159   1.381       .  A
C158        C379   1.473       .  S
C159        H161   1.082       .  S
N162        N163   1.324       .  A
N162        C166   1.347       .  A
N163        C164   1.347       .  A
C164        C165   1.383       .  A
C164        H167   1.082       .  S
C165        C166   1.384       .  A
C165        C539   1.474       .  S
C166        H168   1.082       .  S
N169        N170   1.322       .  A
N169        C173   1.348       .  A
N169       Cu177   2.079       .  S
N170        C171   1.343       .  A
N170       Cu176   2.075       .  S
C171        C172   1.383       .  A
C171        H174   1.082       .  S
C172        C173   1.384       .  A
C172        C344   1.473       .  S
C173        H175   1.082       .  S
Cu176       N179   2.075       .  S
Cu177       N187   2.079       .  S
Cu178       N180   2.075       .  S
Cu178       N186   2.075       .  S
N179        N180   1.321       .  A
N179        C183   1.345       .  A
N180        C181   1.347       .  A
C181        C182   1.384       .  A
C181        H184   1.082       .  S
C182        C183   1.385       .  A
C182        C376   1.474       .  S
C183        H185   1.082       .  S
N186        N187   1.324       .  A
N186        C190   1.345       .  A
N187        C188   1.346       .  A
C188        C189   1.384       .  A
C188        H191   1.082       .  S
C189        C190   1.381       .  A
C189        C507   1.470       .  S
C190        H192   1.082       .  S
N193        N194   1.323       .  A
N193        C197   1.347       .  A
N193       Cu201   2.086       .  S
N194        C195   1.345       .  A
N194       Cu200   2.073       .  S
C195        C196   1.381       .  A
C195        H198   1.082       .  S
C196        C197   1.385       .  A
C196        C312   1.472       .  S
C197        H199   1.082       .  S
Cu200       N203   2.073       .  S
Cu201       N211   2.086       .  S
Cu202       N204   2.079       .  S
Cu202       N210   2.079       .  S
N203        N204   1.322       .  A
N203        C207   1.346       .  A
N204        C205   1.346       .  A
C205        C206   1.384       .  A
C205        H208   1.082       .  S
C206        C207   1.382       .  A
C206        C328   1.472       .  S
C207        H209   1.082       .  S
N210        N211   1.323       .  A
N210        C214   1.345       .  A
N211        C212   1.348       .  A
C212        C213   1.384       .  A
C212        H215   1.082       .  S
C213        C214   1.383       .  A
C213        C411   1.475       .  S
C214        H216   1.082       .  S
N217        N218   1.323       .  A
N217        C221   1.347       .  A
N217       Cu225   2.091       .  S
N218        C219   1.345       .  A
N218       Cu224   2.065       .  S
C219        C220   1.380       .  A
C219        H222   1.082       .  S
C220        C221   1.384       .  A
C220        C347   1.470       .  S
C221        H223   1.082       .  S
Cu224       N227   2.066       .  S
Cu225       N235   2.091       .  S
Cu226       N228   2.078       .  S
Cu226       N234   2.079       .  S
N227        N228   1.321       .  A
N227        C231   1.343       .  A
N228        C229   1.348       .  A
C229        C230   1.385       .  A
C229        H232   1.082       .  S
C230        C231   1.382       .  A
C230        C331   1.472       .  S
C231        H233   1.082       .  S
N234        N235   1.324       .  A
N234        C238   1.343       .  A
N235        C236   1.351       .  A
C236        C237   1.386       .  A
C236        H239   1.082       .  S
C237        C238   1.383       .  A
C237        C395   1.478       .  S
C238        H240   1.081       .  S
N241        N242   1.323       .  A
N241        C245   1.348       .  A
N241       Cu249   2.087       .  S
N242        C243   1.344       .  A
N242       Cu248   2.071       .  S
C243        C244   1.380       .  A
C243        H246   1.082       .  S
C244        C245   1.386       .  A
C244        C315   1.472       .  S
C245        H247   1.082       .  S
Cu248       N251   2.070       .  S
Cu249       N259   2.087       .  S
Cu250       N252   2.070       .  S
Cu250       N258   2.070       .  S
N251        N252   1.321       .  A
N251        C255   1.345       .  A
N252        C253   1.344       .  A
C253        C254   1.381       .  A
C253        H256   1.082       .  S
C254        C255   1.383       .  A
C254        C299   1.469       .  S
C255        H257   1.082       .  S
N258        N259   1.323       .  A
N258        C262   1.345       .  A
N259        C260   1.347       .  A
C260        C261   1.386       .  A
C260        H263   1.082       .  S
C261        C262   1.380       .  A
C261        C440   1.472       .  S
C262        H264   1.082       .  S
N265        N266   1.322       .  A
N265        C269   1.348       .  A
N265       Cu273   2.082       .  S
N266        C267   1.344       .  A
N266       Cu272   2.071       .  S
C267        C268   1.381       .  A
C267        H270   1.082       .  S
C268        C269   1.385       .  A
C268        C360   1.471       .  S
C269        H271   1.082       .  S
Cu272       N275   2.070       .  S
Cu273       N283   2.082       .  S
Cu274       N276   2.072       .  S
Cu274       N282   2.073       .  S
N275        N276   1.322       .  A
N275        C279   1.345       .  A
N276        C277   1.345       .  A
C277        C278   1.384       .  A
C277        H280   1.082       .  S
C278        C279   1.382       .  A
C278        C296   1.470       .  S
C279        H281   1.082       .  S
N282        N283   1.323       .  A
N282        C286   1.346       .  A
N283        C284   1.345       .  A
C284        C285   1.384       .  A
C284        H287   1.082       .  S
C285        C286   1.382       .  A
C285        C456   1.472       .  S
C286        H288   1.082       .  S
C289        C294   1.380       .  A
C289        C290   1.403       .  A
C289        O295   1.318       .  A
C290        C291   1.402       .  A
C290        H301   1.083       .  S
C291        C300   1.361       .  A
C291        C292   1.381       .  A
C292        C293   1.402       .  A
C292        O298   1.318       .  A
C293        C294   1.401       .  A
C293        H302   1.083       .  S
C294        C297   1.360       .  A
O295        C296   1.331       .  A
C296        C297   1.391       .  A
C297        H303   1.082       .  S
O298        C299   1.330       .  A
C299        C300   1.391       .  A
C300        H304   1.082       .  S
C305        C310   1.380       .  A
C305        C306   1.405       .  A
C305        O311   1.319       .  A
C306        C307   1.403       .  A
C306        H317   1.082       .  S
C307        C316   1.364       .  A
C307        C308   1.380       .  A
C308        C309   1.404       .  A
C308        O314   1.318       .  A
C309        C310   1.403       .  A
C309        H318   1.082       .  S
C310        C313   1.363       .  A
O311        C312   1.331       .  A
C312        C313   1.391       .  A
C313        H319   1.082       .  S
O314        C315   1.331       .  A
C315        C316   1.391       .  A
C316        H320   1.082       .  S
C321        C326   1.381       .  A
C321        C322   1.403       .  A
C321        O327   1.319       .  A
C322        C323   1.402       .  A
C322        H333   1.083       .  S
C323        C332   1.360       .  A
C323        C324   1.380       .  A
C324        C325   1.404       .  A
C324        O330   1.321       .  A
C325        C326   1.404       .  A
C325        H334   1.083       .  S
C326        C329   1.363       .  A
O327        C328   1.331       .  A
C328        C329   1.392       .  A
C329        H335   1.082       .  S
O330        C331   1.331       .  A
C331        C332   1.391       .  A
C332        H336   1.082       .  S
C337        C342   1.380       .  A
C337        C338   1.406       .  A
C337        O343   1.322       .  A
C338        C339   1.406       .  A
C338        H349   1.082       .  S
C339        C348   1.364       .  A
C339        C340   1.381       .  A
C340        C341   1.400       .  A
C340        O346   1.317       .  A
C341        C342   1.400       .  A
C341        H350   1.082       .  S
C342        C345   1.358       .  A
O343        C344   1.333       .  A
C344        C345   1.390       .  A
C345        H351   1.082       .  S
O346        C347   1.329       .  A
C347        C348   1.393       .  A
C348        H352   1.082       .  S
C353        C358   1.380       .  A
C353        C354   1.403       .  A
C353        O359   1.318       .  A
C354        C355   1.402       .  A
C354        H365   1.082       .  S
C355        C364   1.363       .  A
C355        C356   1.380       .  A
C356        C357   1.405       .  A
C356        O362   1.319       .  A
C357        C358   1.403       .  A
C357        H366   1.082       .  S
C358        C361   1.364       .  A
O359        C360   1.331       .  A
C360        C361   1.392       .  A
C361        H367   1.082       .  S
O362        C363   1.331       .  A
C363        C364   1.391       .  A
C364        H368   1.082       .  S
C369        C374   1.380       .  A
C369        C370   1.405       .  A
C369        O375   1.320       .  A
C370        C371   1.405       .  A
C370        H381   1.082       .  S
C371        C380   1.364       .  A
C371        C372   1.380       .  A
C372        C373   1.403       .  A
C372        O378   1.318       .  A
C373        C374   1.402       .  A
C373        H382   1.082       .  S
C374        C377   1.361       .  A
O375        C376   1.332       .  A
C376        C377   1.391       .  A
C377        H383   1.082       .  S
O378        C379   1.331       .  A
C379        C380   1.392       .  A
C380        H384   1.082       .  S
C385        C390   1.381       .  A
C385        C386   1.400       .  A
C385        O391   1.317       .  A
C386        C387   1.400       .  A
C386        H397   1.083       .  S
C387        C396   1.358       .  A
C387        C388   1.380       .  A
C388        C389   1.409       .  A
C388        O394   1.324       .  A
C389        C390   1.408       .  A
C389        H398   1.082       .  S
C390        C393   1.368       .  A
O391        C392   1.329       .  A
C392        C393   1.394       .  A
C393        H399   1.082       .  S
O394        C395   1.334       .  A
C395        C396   1.390       .  A
C396        H400   1.082       .  S
C401        C406   1.380       .  A
C401        C402   1.403       .  A
C401        O407   1.319       .  A
C402        C403   1.403       .  A
C402        H413   1.082       .  S
C403        C412   1.362       .  A
C403        C404   1.380       .  A
C404        C405   1.405       .  A
C404        O410   1.321       .  A
C405        C406   1.404       .  A
C405        H414   1.082       .  S
C406        C409   1.364       .  A
O407        C408   1.331       .  A
C408        C409   1.392       .  A
C409        H415   1.082       .  S
O410        C411   1.332       .  A
C411        C412   1.392       .  A
C412        H416   1.082       .  S
C417        C422   1.380       .  A
C417        C418   1.402       .  A
C417        O423   1.318       .  A
C418        C419   1.402       .  A
C418        H429   1.083       .  S
C419        C428   1.360       .  A
C419        C420   1.380       .  A
C420        C421   1.405       .  A
C420        O426   1.321       .  A
C421        C422   1.405       .  A
C421        H430   1.082       .  S
C422        C425   1.364       .  A
O423        C424   1.331       .  A
C424        C425   1.392       .  A
C425        H431   1.082       .  S
O426        C427   1.332       .  A
C427        C428   1.392       .  A
C428        H432   1.082       .  S
C433        C438   1.380       .  A
C433        C434   1.406       .  A
C433        O439   1.320       .  A
C434        C435   1.404   1_565  A
C434        H445   1.082   1_565  S
C435        C444   1.365       .  A
C435        C436   1.381   1_545  A
C436        C437   1.402       .  A
C436        O442   1.317   1_565  A
C437        C438   1.401       .  A
C437        H446   1.082       .  S
C438        C441   1.361       .  A
O439        C440   1.332       .  A
C440        C441   1.390       .  A
C441        H447   1.082       .  S
O442        C443   1.330       .  A
C443        C444   1.391       .  A
C444        H448   1.082       .  S
C449        C454   1.380   1_556  A
C449        C450   1.406       .  A
C449        O455   1.321       .  A
C450        C451   1.406   1_556  A
C450        H461   1.082   1_565  S
C451        C460   1.365   1_565  A
C451        C452   1.381       .  A
C452        C453   1.401       .  A
C452        O458   1.317       .  A
C453        C454   1.400       .  A
C453        H462   1.082       .  S
C454        C457   1.359   1_554  A
O455        C456   1.333       .  A
C456        C457   1.389       .  A
C457        H463   1.082   1_556  S
O458        C459   1.329   1_565  A
C459        C460   1.393       .  A
C460        H464   1.082       .  S
C465        C470   1.380       .  A
C465        C466   1.404       .  A
C465        O471   1.318       .  A
C466        C467   1.402       .  A
C466        H477   1.082       .  S
C467        C476   1.363       .  A
C467        C468   1.380       .  A
C468        C469   1.404       .  A
C468        O474   1.318       .  A
C469        C470   1.402       .  A
C469        H478   1.082       .  S
C470        C473   1.363       .  A
O471        C472   1.331       .  A
C472        C473   1.391       .  A
C473        H479   1.082       .  S
O474        C475   1.331       .  A
C475        C476   1.391       .  A
C476        H480   1.082       .  S
C481        C486   1.381       .  A
C481        C482   1.401       .  A
C481        O487   1.316       .  A
C482        C483   1.400       .  A
C482        H493   1.082       .  S
C483        C492   1.359       .  A
C483        C484   1.380       .  A
C484        C485   1.406       .  A
C484        O490   1.321       .  A
C485        C486   1.405       .  A
C485        H494   1.082       .  S
C486        C489   1.366       .  A
O487        C488   1.329       .  A
C488        C489   1.392       .  A
C489        H495   1.082       .  S
O490        C491   1.332       .  A
C491        C492   1.390       .  A
C492        H496   1.082       .  S
C497        C502   1.381       .  A
C497        C498   1.403   1_655  A
C497        O503   1.317       .  A
C498        C499   1.402       .  A
C498        H509   1.082       .  S
C499        C508   1.362       .  A
C499        C500   1.380   1_455  A
C500        C501   1.403       .  A
C500        O506   1.318   1_655  A
C501        C502   1.402       .  A
C501        H510   1.082       .  S
C502        C505   1.362       .  A
O503        C504   1.330       .  A
C504        C505   1.390       .  A
C505        H511   1.082       .  S
O506        C507   1.331       .  A
C507        C508   1.391       .  A
C508        H512   1.082       .  S
C513        C518   1.381       .  A
C513        C514   1.404       .  A
C513        O519   1.320       .  A
C514        C515   1.404       .  A
C514        H525   1.082       .  S
C515        C524   1.362       .  A
C515        C516   1.381       .  A
C516        C517   1.401       .  A
C516        O522   1.318       .  A
C517        C518   1.401       .  A
C517        H526   1.082       .  S
C518        C521   1.358       .  A
O519        C520   1.331       .  A
C520        C521   1.390       .  A
C521        H527   1.082       .  S
O522        C523   1.329       .  A
C523        C524   1.392       .  A
C524        H528   1.082       .  S
C529        C534   1.380       .  A
C529        C530   1.405       .  A
C529        O535   1.321       .  A
C530        C531   1.405       .  A
C530        H541   1.082       .  S
C531        C540   1.364   1_655  A
C531        C532   1.380   1_655  A
C532        C533   1.403       .  A
C532        O538   1.319       .  A
C533        C534   1.403   1_455  A
C533        H542   1.082       .  S
C534        C537   1.361       .  A
O535        C536   1.332       .  A
C536        C537   1.391       .  A
C537        H543   1.082       .  S
O538        C539   1.331       .  A
C539        C540   1.393       .  A
C540        H544   1.082       .  S
C545        C550   1.380       .  A
C545        C546   1.404       .  A
C545        O551   1.318       .  A
C546        C547   1.403       .  A
C546        H557   1.082       .  S
C547        C556   1.363       .  A
C547        C548   1.380       .  A
C548        C549   1.403       .  A
C548        O554   1.318       .  A
C549        C550   1.402       .  A
C549        H558   1.082       .  S
C550        C553   1.363       .  A
O551        C552   1.331       .  A
C552        C553   1.390       .  A
C553        H559   1.082       .  S
O554        C555   1.330       .  A
C555        C556   1.392       .  A
C556        H560   1.082       .  S
C561        C566   1.381       .  A
C561        C562   1.403       .  A
C561        O567   1.319       .  A
C562        C563   1.402       .  A
C562        H573   1.083       .  S
C563        C572   1.361       .  A
C563        C564   1.381       .  A
C564        C565   1.401       .  A
C564        O570   1.317       .  A
C565        C566   1.401       .  A
C565        H574   1.083       .  S
C566        C569   1.358       .  A
O567        C568   1.330       .  A
C568        C569   1.391       .  A
C569        H575   1.082       .  S
O570        C571   1.330       .  A
C571        C572   1.391       .  A
C572        H576   1.082       .  S
