geometry optimzed in LAMMPS
_audit_creation_date              2020-11-30 
_audit_creation_method            'lammps2cif' 
_symmetry_space_group_name_H-M    'P1' 
_symmetry_Int_Tables_number       1 
_symmetry_cell_setting            triclinic 
loop_ 
_symmetry_equiv_pos_as_xyz 
  x,y,z 
_cell_length_a                    61.37933437 
_cell_length_b                    61.38206123117749 
_cell_length_c                    61.32067520700776 
_cell_angle_alpha                 90.01267456280266 
_cell_angle_beta                  89.97804095166697 
_cell_angle_gamma                 89.96638964705423 
loop_ 
_atom_site_label 
_atom_site_type_symbol 
_atom_site_fract_x 
_atom_site_fract_y 
_atom_site_fract_z 
_atom_site_charge 
N1          N  0.98337707  0.63414471  0.56812409    -0.26400
N2          N  0.98244938  0.61708484  0.58126612    -0.34200
C3          C  0.98036036  0.59888199  0.56934784     0.02000
C4          C  0.97984321  0.60456613  0.54756973     0.08000
C5          C  0.98176709  0.62710117  0.54735535    -0.05100
H6          H  0.97828966  0.58275926  0.57616167     0.08700
H7          H  0.98185235  0.63761020  0.53319767     0.09900
Cu8        Cu  0.98058855  0.61859093  0.61481764     0.44200
Cu9        Cu  0.98625195  0.66614225  0.57942058     0.42000
Cu10       Cu  0.97717253  0.67160987  0.63781105     0.43900
N11         N  0.96943031  0.62400346  0.64607387    -0.33700
N12         N  0.96694457  0.64379424  0.65415938    -0.28000
C13         C  0.95545531  0.64246883  0.67279124    -0.04100
C14         C  0.95068805  0.62076536  0.67665931     0.08100
C15         C  0.95988428  0.60949715  0.65944385     0.01900
H16         H  0.94995392  0.65635860  0.68216366     0.09600
H17         H  0.95802200  0.59234225  0.65583828     0.07100
N18         N  0.98851975  0.69668818  0.61808058    -0.35200
N19         N  0.99124518  0.69505201  0.59673141    -0.27400
C20         C  0.99906330  0.71411772  0.58911892    -0.02600
C21         C  0.00163196  0.72826438  0.60655510     0.06000
C22         C  0.99477759  0.71665282  0.62462049     0.04100
H23         H  0.00327424  0.71719166  0.57226495     0.09200
H24         H  0.99453889  0.72221542  0.64136143     0.08000
N25         N  0.07193356  0.50727811  0.35647033    -0.26400
N26         N  0.08445276  0.51292742  0.37303081    -0.34200
C27         C  0.07212173  0.51618695  0.39075446     0.02000
C28         C  0.05057398  0.51209357  0.38551395     0.08000
C29         C  0.05108375  0.50652190  0.36347276    -0.05100
H30         H  0.07853729  0.52180352  0.40617060     0.08700
H31         H  0.03741104  0.50217512  0.35325461     0.09900
Cu32       Cu  0.11769364  0.51704548  0.37149042     0.44200
Cu33       Cu  0.08476709  0.50194882  0.32528813     0.42000
Cu34       Cu  0.14353133  0.51527407  0.31981117     0.43900
N35         N  0.14970885  0.52600687  0.36725021    -0.33700
N36         N  0.15909448  0.52688605  0.34788651    -0.28000
C37         C  0.17846953  0.53701418  0.35000028    -0.04100
C38         C  0.18142172  0.54236417  0.37181398     0.08100
C39         C  0.16288498  0.53503489  0.38223543     0.01900
H40         H  0.18916819  0.54103084  0.33656622     0.09600
H41         H  0.15844186  0.53776931  0.39909340     0.08700
N42         N  0.12429425  0.50165503  0.29509355    -0.35200
N43         N  0.10316440  0.49753309  0.29684429    -0.27400
C44         C  0.09596256  0.48928583  0.27779054    -0.02600
C45         C  0.11335790  0.48780018  0.26347936     0.06000
C46         C  0.13105373  0.49572172  0.27501903     0.04100
H47         H  0.07934043  0.48429025  0.27473455     0.09200
H48         H  0.14761874  0.49725858  0.26918437     0.08000
N49         N  0.85653615  0.41911581  0.47379380    -0.26400
N50         N  0.87426433  0.40696674  0.47224259    -0.34200
C51         C  0.89177356  0.41992889  0.47092760     0.02000
C52         C  0.88493948  0.44137082  0.47179008     0.08000
C53         C  0.86242022  0.44028131  0.47347175    -0.05100
H54         H  0.90829424  0.41407873  0.46903265     0.08700
H55         H  0.85118169  0.45379999  0.47477073     0.09900
Cu56       Cu  0.87473079  0.37336752  0.47047932     0.44200
Cu57       Cu  0.82545652  0.40592920  0.47695422     0.42000
Cu58       Cu  0.82327112  0.34693329  0.47022740     0.43900
N59         N  0.87100573  0.34130543  0.46106852    -0.33700
N60         N  0.85169886  0.33191456  0.45971931    -0.28000
C61         C  0.85373695  0.31307842  0.44870576    -0.04100
C62         C  0.87542459  0.31041308  0.44311472     0.08100
C63         C  0.88594282  0.32854529  0.45132845     0.01900
H64         H  0.84024352  0.30279780  0.44393165     0.09600
H65         H  0.90269857  0.33320541  0.44845484     0.08700
N66         N  0.79716980  0.36578861  0.48063054    -0.35200
N67         N  0.79771630  0.38725216  0.48258037    -0.27400
C68         C  0.77814889  0.39425752  0.48963633    -0.02600
C69         C  0.76474621  0.37633517  0.49237724     0.06000
C70         C  0.77733772  0.35858232  0.48653302     0.04100
H71         H  0.77413454  0.41110674  0.49291561     0.09200
H72         H  0.77249067  0.34163997  0.48659056     0.08000
C73         C  0.96480348  0.54395311  0.47729779     0.04100
C74         C  0.94700541  0.52969841  0.47821812    -0.12100
C75         C  0.94496192  0.51291419  0.46285158     0.01600
C76         C  0.96061647  0.51064353  0.44629551    -0.10600
C77         C  0.97854118  0.52479095  0.44536343     0.04100
C78         C  0.98050961  0.54144765  0.46090860    -0.10000
H79         H  0.93543463  0.53093166  0.49152412     0.09700
H80         H  0.95952393  0.49712921  0.43496481     0.07200
H81         H  0.99465651  0.55201609  0.46069346     0.07000
N82         N  0.64345074  0.55546722  0.98682359    -0.26400
N83         N  0.62626797  0.56814733  0.98399441    -0.34200
C84         C  0.60828166  0.55579880  0.98278851     0.02000
C85         C  0.61416900  0.53414847  0.98504698     0.08000
C86         C  0.63669103  0.53457102  0.98754829    -0.05100
H87         H  0.59218020  0.56218531  0.97955590     0.08700
H88         H  0.64741930  0.52076169  0.98971698     0.09900
Cu89       Cu  0.62740482  0.60149239  0.97957085     0.44200
Cu90       Cu  0.67520672  0.56761017  0.98915415     0.42000
Cu91       Cu  0.67997604  0.62587351  0.97722978     0.43900
N92         N  0.63220008  0.63265210  0.96785694    -0.33700
N93         N  0.65179355  0.64128039  0.96563531    -0.28000
C94         C  0.65002284  0.65962263  0.95368733    -0.04100
C95         C  0.62823593  0.66274385  0.94841047     0.08100
C96         C  0.61742961  0.64536888  0.95778959     0.01900
H97         H  0.66369062  0.66933621  0.94825829     0.09600
H98         H  0.60043710  0.64117859  0.95570730     0.08700
N99         N  0.70530833  0.60677679  0.98988185    -0.35200
N100        N  0.70386130  0.58555118  0.99348372    -0.27400
C101        C  0.72302958  0.57835834  0.00150335    -0.02600
C102        C  0.73713480  0.59589854  0.00331392     0.06000
C103        C  0.72531127  0.61362070  0.99581811     0.04100
H104        H  0.72626591  0.56168023  0.00620397     0.09200
H105        H  0.73084500  0.63031626  0.99474703     0.08000
N106        N  0.51688168  0.33900949  0.07590339    -0.26400
N107        N  0.51817846  0.35604733  0.08903540    -0.34200
C108        C  0.51989190  0.37425888  0.07705837     0.02000
C109        C  0.51974206  0.36858545  0.05524289     0.08000
C110        C  0.51782633  0.34604920  0.05509703    -0.05100
H111        H  0.52229047  0.39036187  0.08381614     0.08700
H112        H  0.51742915  0.33551537  0.04096037     0.09900
Cu113      Cu  0.52147959  0.35423309  0.12249747     0.44200
Cu114      Cu  0.51496302  0.30702875  0.08731018     0.42000
Cu115      Cu  0.52771594  0.30104661  0.14503259     0.43900
N116        N  0.53538650  0.34881486  0.15264895    -0.33700
N117        N  0.53912973  0.32906182  0.16034457    -0.28000
C118        C  0.55263326  0.33062262  0.17756658    -0.04100
C119        C  0.55734329  0.35243572  0.18095835     0.08100
C120        C  0.54602967  0.36350007  0.16494326     0.01900
H121        H  0.55944792  0.31685196  0.18621405     0.09600
H122        H  0.54717782  0.38068231  0.16117951     0.08700
N123        N  0.51561044  0.27598957  0.12564416    -0.35200
N124        N  0.51179598  0.27783160  0.10447860    -0.27400
C125        C  0.50448646  0.25857002  0.09687594    -0.02600
C126        C  0.50334048  0.24406883  0.11413974     0.06000
C127        C  0.51045349  0.25568116  0.13210656     0.04100
H128        H  0.49971182  0.25555503  0.08016371     0.09200
H129        H  0.51183820  0.24979645  0.14867886     0.08000
N130        N  0.43351484  0.46376499  0.86016229    -0.26400
N131        N  0.42023422  0.45829691  0.87617671    -0.34200
C132        C  0.43167977  0.45579641  0.89459433     0.02000
C133        C  0.45338943  0.46018839  0.89030482     0.08000
C134        C  0.45392879  0.46516610  0.86815841    -0.05100
H135        H  0.42460333  0.45041627  0.90980725     0.08700
H136        H  0.46800519  0.46954341  0.85851281     0.09900
Cu137      Cu  0.38728644  0.45318780  0.87274409     0.44200
Cu138      Cu  0.42244602  0.46822514  0.82837184     0.42000
Cu139      Cu  0.36409154  0.45553082  0.81954344     0.43900
N140        N  0.35602884  0.44291012  0.86643695    -0.33700
N141        N  0.34759033  0.44232032  0.84662269    -0.28000
C142        C  0.32843124  0.43155363  0.84762004    -0.04100
C143        C  0.32465772  0.42547936  0.86915162     0.08100
C144        C  0.34248841  0.43305116  0.88055710     0.01900
H145        H  0.31832272  0.42783510  0.83365980     0.09600
H146        H  0.34613208  0.43023708  0.89758874     0.08700
N147        N  0.38479177  0.46989437  0.79616534    -0.35200
N148        N  0.40584847  0.47358181  0.79922182    -0.27400
C149        C  0.41427115  0.48270950  0.78110954    -0.02600
C150        C  0.39779005  0.48526278  0.76595728     0.06000
C151        C  0.37931451  0.47699423  0.77606189     0.04100
H152        H  0.43106755  0.48775993  0.77937784     0.09200
H153        H  0.36305342  0.47623971  0.76930480     0.08000
C154        C  0.55412685  0.46255583  0.97343662     0.04100
C155        C  0.53945113  0.46447908  0.95599816    -0.12100
C156        C  0.52255120  0.44934054  0.95344556     0.01600
C157        C  0.52053111  0.43206553  0.96827845    -0.10600
C158        C  0.53518367  0.42995449  0.98565059     0.04100
C159        C  0.55204264  0.44518600  0.98816139    -0.10000
H160        H  0.54055629  0.47831158  0.94506382     0.09700
H161        H  0.50700874  0.42079892  0.96683212     0.07200
H162        H  0.56283359  0.44413018  0.00211100     0.07000
N163        N  0.89982665  0.25679469  0.32026296    -0.26400
N164        N  0.88250574  0.26028943  0.33258477    -0.34200
C165        C  0.86499349  0.26301880  0.31981802     0.02000
C166        C  0.87138492  0.26111678  0.29827650     0.08000
C167        C  0.89366360  0.25719101  0.29916302    -0.05100
H168        H  0.84895271  0.26714615  0.32585285     0.08700
H169        H  0.90463527  0.25495953  0.28553995     0.09900
Cu170      Cu  0.88314341  0.26407316  0.36598267     0.44200
Cu171      Cu  0.93095617  0.25254911  0.33323185     0.42000
Cu172      Cu  0.93513732  0.26358454  0.39176148     0.43900
N173        N  0.88800224  0.27542991  0.39722822    -0.33700
N174        N  0.90745369  0.27663004  0.40635829    -0.28000
C175        C  0.90589999  0.28848740  0.42477744    -0.04100
C176        C  0.88435253  0.29467286  0.42742191     0.08100
C177        C  0.87347715  0.28605256  0.40970721     0.01900
H178        H  0.91955409  0.29303232  0.43495765     0.09600
H179        H  0.85665831  0.28887260  0.40523548     0.08700
N180        N  0.96018735  0.25042582  0.37304146    -0.35200
N181        N  0.95900959  0.24723268  0.35172063    -0.27400
C182        C  0.97825635  0.23939048  0.34464688    -0.02600
C183        C  0.99207730  0.23728344  0.36237587     0.06000
C184        C  0.98006020  0.24436279  0.38009955     0.04100
H185        H  0.98182135  0.23525735  0.32786775     0.09200
H186        H  0.98546819  0.24539667  0.39685753     0.08000
N187        N  0.77865905  0.18008925  0.10079299    -0.26400
N188        N  0.78059370  0.16726949  0.11798283    -0.34200
C189        C  0.78315350  0.17942457  0.13591439     0.02000
C190        C  0.78246894  0.20119219  0.13012240     0.08000
C191        C  0.77971567  0.20100194  0.10757280    -0.05100
H192        H  0.78598150  0.17266646  0.15194184     0.08700
H193        H  0.77835215  0.21494341  0.09688639     0.09900
Cu194      Cu  0.78138262  0.13377324  0.11735619     0.44200
Cu195      Cu  0.77486295  0.16760247  0.06925504     0.42000
Cu196      Cu  0.78277960  0.10813796  0.06587474     0.43900
N197        N  0.79113328  0.10194265  0.11374680    -0.33700
N198        N  0.79327361  0.09271868  0.09441089    -0.28000
C199        C  0.80442336  0.07395916  0.09682535    -0.04100
C200        C  0.80922134  0.07124789  0.11878905     0.08100
C201        C  0.80042552  0.08926319  0.12901229     0.01900
H202        H  0.80969970  0.06369167  0.08348631     0.09600
H203        H  0.80252373  0.09389510  0.14590782     0.08700
N204        N  0.77111791  0.12751179  0.04033989    -0.35200
N205        N  0.76900192  0.14897854  0.04123626    -0.27400
C206        C  0.76132125  0.15615056  0.02191765    -0.02600
C207        C  0.75816589  0.13838088  0.00832716     0.06000
C208        C  0.76451112  0.12052679  0.02058269     0.04100
H209        H  0.75777192  0.17301832  0.01822976     0.09200
H210        H  0.76439913  0.10365008  0.01549462     0.08000
N211        N  0.68192895  0.37964439  0.23175478    -0.26400
N212        N  0.67077113  0.36165661  0.22784128    -0.34200
C213        C  0.68465288  0.34477194  0.22651275     0.02000
C214        C  0.70554932  0.35256489  0.22958708     0.08000
C215        C  0.70326113  0.37474251  0.23278739    -0.05100
H216        H  0.67997754  0.32823165  0.22260847     0.08700
H217        H  0.71613711  0.38648021  0.23541834     0.09900
Cu218      Cu  0.63756266  0.36133228  0.22213924     0.44200
Cu219      Cu  0.66752446  0.40994052  0.23522684     0.42000
Cu220      Cu  0.60914277  0.41305650  0.22624918     0.43900
N221        N  0.60567244  0.36593394  0.21227316    -0.33700
N222        N  0.59549111  0.38492907  0.21281714    -0.28000
C223        C  0.57625436  0.38289669  0.20243277    -0.04100
C224        C  0.57419836  0.36155526  0.19535986     0.08100
C225        C  0.59310252  0.35128360  0.20193136     0.01900
H226        H  0.56494092  0.39612333  0.19962139     0.09600
H227        H  0.59803073  0.33477423  0.19818219     0.08700
N228        N  0.62784575  0.43878337  0.23835061    -0.35200
N229        N  0.64925120  0.43777701  0.24067281    -0.27400
C230        C  0.65664039  0.45708837  0.24793582    -0.02600
C231        C  0.63904829  0.47088484  0.25058152     0.06000
C232        C  0.62102696  0.45874724  0.24444147     0.04100
H233        H  0.67353560  0.46063927  0.25147897     0.09200
H234        H  0.60423131  0.46409851  0.24419837     0.08000
C235        C  0.78118220  0.29942789  0.21504273     0.04100
C236        C  0.78048999  0.28694826  0.19589875    -0.12100
C237        C  0.79607887  0.27067166  0.19221284     0.01600
C238        C  0.81290948  0.26748565  0.20736623    -0.10600
C239        C  0.81370245  0.27994524  0.22649222     0.04100
C240        C  0.79775599  0.29585772  0.23031365    -0.10000
H241        H  0.76690547  0.28875091  0.18474485     0.09700
H242        H  0.82435950  0.25422130  0.20508689     0.07200
H243        H  0.79775478  0.30484818  0.24553602     0.07000
N244        N  0.57424709  0.96199018  0.64525677    -0.26400
N245        N  0.58676332  0.95661771  0.62856565    -0.34200
C246        C  0.57439370  0.95379941  0.61076142     0.02000
C247        C  0.55284484  0.95771090  0.61615644     0.08000
C248        C  0.55335368  0.96278392  0.63830742    -0.05100
H249        H  0.58071287  0.94878279  0.59507824     0.08700
H250        H  0.53962807  0.96697032  0.64855095     0.09900
Cu251      Cu  0.62011253  0.95249349  0.63023517     0.44200
Cu252      Cu  0.58732751  0.96771167  0.67640513     0.42000
Cu253      Cu  0.64667800  0.95722958  0.68174916     0.43900
N254        N  0.65246282  0.94450994  0.63474435    -0.33700
N255        N  0.66218655  0.94495048  0.65395954    -0.28000
C256        C  0.68186923  0.93534241  0.65205350    -0.04100
C257        C  0.68463680  0.92889209  0.63052543     0.08100
C258        C  0.66571087  0.93509214  0.62005887     0.01900
H259        H  0.69290322  0.93239579  0.66548919     0.09600
H260        H  0.66112868  0.93138136  0.60343155     0.08700
N261        N  0.62700304  0.97033696  0.70637839    -0.35200
N262        N  0.60568267  0.97343881  0.70478402    -0.27400
C263        C  0.59830988  0.98169935  0.72380891    -0.02600
C264        C  0.61578472  0.98423887  0.73790381     0.06000
C265        C  0.63368434  0.97690869  0.72626361     0.04100
H266        H  0.58151782  0.98604320  0.72696790     0.09200
H267        H  0.65037770  0.97626935  0.73188806     0.08000
N268        N  0.35976380  0.05320026  0.52253701    -0.26400
N269        N  0.37720909  0.06577465  0.52094276    -0.34200
C270        C  0.39515457  0.05325525  0.52113639     0.02000
C271        C  0.38883962  0.03178258  0.52323263     0.08000
C272        C  0.36629111  0.03228703  0.52414826    -0.05100
H273        H  0.41165653  0.05944533  0.52100513     0.08700
H274        H  0.35545675  0.01851639  0.52600766     0.09900
Cu275      Cu  0.37693484  0.09943368  0.52291642     0.44200
Cu276      Cu  0.32790537  0.06516170  0.52243566     0.42000
Cu277      Cu  0.32463872  0.12336405  0.53043690     0.43900
N278        N  0.37289266  0.13019265  0.53612688    -0.33700
N279        N  0.35341582  0.13847006  0.54009810    -0.28000
C280        C  0.35570020  0.15626925  0.55268634    -0.04100
C281        C  0.37768724  0.15945532  0.55665709     0.08100
C282        C  0.38813373  0.14266620  0.54581006     0.01900
H283        H  0.34228023  0.16552124  0.55941899     0.09600
H284        H  0.40528659  0.13866673  0.54658140     0.08700
N285        N  0.29840267  0.10442080  0.52029444    -0.35200
N286        N  0.29922111  0.08298229  0.51821598    -0.27400
C287        C  0.27965502  0.07578076  0.51127307    -0.02600
C288        C  0.26601250  0.09358821  0.50856320     0.06000
C289        C  0.27847229  0.11143940  0.51441762     0.04100
H290        H  0.27592081  0.05894866  0.50761602     0.09200
H291        H  0.27348843  0.12834722  0.51423652     0.08000
N292        N  0.48359112  0.84230214  0.42639990    -0.26400
N293        N  0.48002085  0.85913143  0.41345949    -0.34200
C294        C  0.47767372  0.87720170  0.42558095     0.02000
C295        C  0.48001876  0.87171861  0.44738188     0.08000
C296        C  0.48381458  0.84936474  0.44720460    -0.05100
H297        H  0.47357838  0.89298007  0.41890744     0.08700
H298        H  0.48645109  0.83889029  0.46112509     0.09900
Cu299      Cu  0.47590935  0.85687090  0.38013756     0.44200
Cu300      Cu  0.48664188  0.81036603  0.41491746     0.42000
Cu301      Cu  0.47247139  0.80290756  0.35771312     0.43900
N302        N  0.46327234  0.85048563  0.34965854    -0.33700
N303        N  0.46048522  0.83057598  0.34193342    -0.28000
C304        C  0.44772857  0.83169296  0.32408834    -0.04100
C305        C  0.44256754  0.85336848  0.32035479     0.08100
C306        C  0.45280601  0.86479516  0.33680757     0.01900
H307        H  0.44176891  0.81770961  0.31516148     0.09600
H308        H  0.45108371  0.88197402  0.34037980     0.08700
N309        N  0.48520312  0.77823394  0.37742987    -0.35200
N310        N  0.48961527  0.78068152  0.39841997    -0.27400
C311        C  0.49689592  0.76155168  0.40643734    -0.02600
C312        C  0.49738918  0.74643252  0.38965081     0.06000
C313        C  0.48993147  0.75762374  0.37150630     0.04100
H314        H  0.50186126  0.75895786  0.42316337     0.09200
H315        H  0.48785724  0.75118851  0.35521238     0.08000
C316        C  0.45005071  0.96152033  0.53555099     0.04100
C317        C  0.46447024  0.96209920  0.55334974    -0.12100
C318        C  0.48175598  0.94712583  0.55470208     0.01600
C319        C  0.48402917  0.93104108  0.53848807    -0.10600
C320        C  0.46946624  0.93021739  0.52085200     0.04100
C321        C  0.45259241  0.94549785  0.51948294    -0.10000
H322        H  0.46312691  0.97504110  0.56530375     0.09700
H323        H  0.49770178  0.91987200  0.53904955     0.07200
H324        H  0.44176831  0.94531214  0.50550972     0.07000
N325        N  0.18699881  0.09493281  0.76291660    -0.26400
N326        N  0.17470959  0.11263133  0.76289650    -0.34200
C327        C  0.18754567  0.13030729  0.76374977     0.02000
C328        C  0.20904412  0.12357346  0.76442470     0.08000
C329        C  0.20808164  0.10098383  0.76387196    -0.05100
H330        H  0.18155604  0.14682566  0.76517102     0.08700
H331        H  0.22164445  0.08974445  0.76449526     0.09900
Cu332      Cu  0.14117436  0.11257547  0.76598640     0.44200
Cu333      Cu  0.17420349  0.06346352  0.76271106     0.42000
Cu334      Cu  0.11616213  0.06052539  0.77370698     0.43900
N335        N  0.11098948  0.10889777  0.78042951    -0.33700
N336        N  0.10237691  0.08961127  0.78458500    -0.28000
C337        C  0.08557912  0.09223997  0.79845833    -0.04100
C338        C  0.08344525  0.11424748  0.80305945     0.08100
C339        C  0.09973394  0.12432809  0.79122258     0.01900
H340        H  0.07647455  0.07900525  0.80571081     0.09600
H341        H  0.10445998  0.14128174  0.79215918     0.08700
N342        N  0.13465264  0.03412219  0.76294444    -0.35200
N343        N  0.15598438  0.03492851  0.75989863    -0.27400
C344        C  0.16301828  0.01517178  0.75337793    -0.02600
C345        C  0.14523417  0.00137540  0.75193043     0.06000
C346        C  0.12752852  0.01395058  0.75806340     0.04100
H347        H  0.17973918  0.01133775  0.74930688     0.09200
H348        H  0.11069378  0.00881338  0.75895910     0.08000
N349        N  0.26820042  0.30599907  0.89033193    -0.26400
N350        N  0.26912732  0.31899398  0.87314701    -0.34200
C351        C  0.27150305  0.30691676  0.85501760     0.02000
C352        C  0.27238796  0.28526208  0.86100169     0.08000
C353        C  0.27032001  0.28521749  0.88351446    -0.05100
H354        H  0.27376604  0.31350018  0.83880803     0.08700
H355        H  0.27069207  0.27116539  0.89415279     0.09900
Cu356      Cu  0.27176696  0.35250714  0.87503157     0.44200
Cu357      Cu  0.26475295  0.31761608  0.92222034     0.42000
Cu358      Cu  0.27460746  0.37591579  0.92840078     0.43900
N359        N  0.28534579  0.38274639  0.88084448    -0.33700
N360        N  0.28779698  0.39091190  0.90064118    -0.28000
C361        C  0.30130680  0.40819589  0.89940949    -0.04100
C362        C  0.30738349  0.41109553  0.87776840     0.08100
C363        C  0.29684191  0.39471424  0.86650824     0.01900
H364        H  0.30719358  0.41725713  0.91334674     0.09600
H365        H  0.29901103  0.39053887  0.84950211     0.08700
N366        N  0.26194391  0.35603261  0.95315958    -0.35200
N367        N  0.25924585  0.33471365  0.95123150    -0.27400
C368        C  0.25191033  0.32670193  0.97036747    -0.02600
C369        C  0.24962407  0.34379053  0.98497596     0.06000
C370        C  0.25603762  0.36212491  0.97344386     0.04100
H371        H  0.24827713  0.30971573  0.97334591     0.09200
H372        H  0.25678322  0.37866111  0.97950486     0.08000
N373        N  0.40366712  0.21298472  0.67944301    -0.26400
N374        N  0.38626416  0.21002570  0.66711471    -0.34200
C375        C  0.36856566  0.20858029  0.67985542     0.02000
C376        C  0.37501030  0.21066306  0.70133503     0.08000
C377        C  0.39743371  0.21333814  0.70053399    -0.05100
H378        H  0.35224079  0.20561283  0.67390750     0.08700
H379        H  0.40834603  0.21560791  0.71419482     0.09900
Cu380      Cu  0.38710138  0.20583861  0.63375449     0.44200
Cu381      Cu  0.43468668  0.21672918  0.66623761     0.42000
Cu382      Cu  0.43859320  0.20686705  0.60699990     0.43900
N383        N  0.39159170  0.19409865  0.60257500    -0.33700
N384        N  0.41079838  0.19318039  0.59288381    -0.28000
C385        C  0.40884132  0.18126587  0.57448905    -0.04100
C386        C  0.38728585  0.17471517  0.57253053     0.08100
C387        C  0.37687533  0.18322793  0.59058229     0.01900
H388        H  0.42220543  0.17706745  0.56377168     0.09600
H389        H  0.36018131  0.18039565  0.59548977     0.08700
N390        N  0.46361480  0.21972120  0.62622061    -0.35200
N391        N  0.46250840  0.22238726  0.64763212    -0.27400
C392        C  0.48178912  0.22994020  0.65491026    -0.02600
C393        C  0.49560908  0.23237064  0.63725925     0.06000
C394        C  0.48352689  0.22584287  0.61934788     0.04100
H395        H  0.48536512  0.23364962  0.67178183     0.09200
H396        H  0.48893109  0.22521870  0.60256368     0.08000
C397        C  0.29161457  0.21483386  0.80158451     0.04100
C398        C  0.27660580  0.19794439  0.79805859    -0.12100
C399        C  0.28014968  0.18255497  0.78153294     0.01600
C400        C  0.29878698  0.18407173  0.76845177    -0.10600
C401        C  0.31380568  0.20096867  0.77172303     0.04100
C402        C  0.31032261  0.21617722  0.78845876    -0.10000
H403        H  0.26178513  0.19723402  0.80765558     0.09700
H404        H  0.30095465  0.17288095  0.75493945     0.07200
H405        H  0.32142173  0.22977394  0.79036903     0.07000
N406        N  0.14756509  0.92361357  0.02369910    -0.26400
N407        N  0.13067717  0.91135371  0.02892675    -0.34200
C408        C  0.11290073  0.92390959  0.03080682     0.02000
C409        C  0.11847149  0.94532382  0.02630228     0.08000
C410        C  0.14075386  0.94447552  0.02190387    -0.05100
H411        H  0.09721087  0.91779925  0.03595368     0.08700
H412        H  0.15129773  0.95794426  0.01772897     0.09900
Cu413      Cu  0.13197656  0.87825095  0.03495023     0.44200
Cu414      Cu  0.17895065  0.91056891  0.02025882     0.42000
Cu415      Cu  0.18392787  0.85259270  0.03594493     0.43900
N416        N  0.13640060  0.84691478  0.04638937    -0.33700
N417        N  0.15582036  0.83780778  0.04823795    -0.28000
C418        C  0.15377290  0.81917269  0.05968936    -0.04100
C419        C  0.13194505  0.81632015  0.06486377     0.08100
C420        C  0.12143831  0.83419138  0.05610235     0.01900
H421        H  0.16723728  0.80890014  0.06459078     0.09600
H422        H  0.10448411  0.83854942  0.05821028     0.08700
N423        N  0.20886671  0.87097246  0.02174958    -0.35200
N424        N  0.20739864  0.89194353  0.01681603    -0.27400
C425        C  0.22653006  0.89853938  0.00822921    -0.02600
C426        C  0.24056152  0.88086525  0.00738988     0.06000
C427        C  0.22878456  0.86368671  0.01604227     0.04100
H428        H  0.22977161  0.91486612  0.00243624     0.09200
H429        H  0.23430481  0.84707065  0.01809459     0.08000
N430        N  0.93144818  0.01648864  0.14335131    -0.26400
N431        N  0.91865861  0.02015509  0.12644338    -0.34200
C432        C  0.93081740  0.02239417  0.10840624     0.02000
C433        C  0.95257811  0.01977933  0.11384770     0.08000
C434        C  0.95229899  0.01605643  0.13630563    -0.05100
H435        H  0.92414929  0.02654424  0.09263588     0.08700
H436        H  0.96615303  0.01325623  0.14681545     0.09900
Cu437      Cu  0.88535671  0.02405182  0.12837435     0.44200
Cu438      Cu  0.91884901  0.01319191  0.17501285     0.42000
Cu439      Cu  0.86018329  0.02614111  0.18080451     0.43900
N440        N  0.85428606  0.03582301  0.13308178    -0.33700
N441        N  0.84536348  0.03822945  0.15254760    -0.28000
C442        C  0.82715804  0.05036315  0.15042173    -0.04100
C443        C  0.82448919  0.05547174  0.12851703     0.08100
C444        C  0.84193511  0.04587671  0.11805864     0.01900
H445        H  0.81718591  0.05589170  0.16388463     0.09600
H446        H  0.84641309  0.04773368  0.10109285     0.08700
N447        N  0.87938425  0.01224066  0.20537167    -0.35200
N448        N  0.90058510  0.00849486  0.20359556    -0.27400
C449        C  0.90778613  0.99964659  0.22238259    -0.02600
C450        C  0.89031084  0.99728197  0.23649690     0.06000
C451        C  0.87257423  0.00541991  0.22515170     0.04100
H452        H  0.92441699  0.99456451  0.22527152     0.09200
H453        H  0.85591230  0.00631066  0.23084767     0.08000
N454        N  0.03301119  0.14018833  0.92927928    -0.26400
N455        N  0.03727979  0.12310878  0.91688524    -0.34200
C456        C  0.03808842  0.10517601  0.92934362     0.02000
C457        C  0.03404769  0.11101940  0.95076702     0.08000
C458        C  0.03095748  0.13345693  0.95012650    -0.05100
H459        H  0.04204293  0.08912276  0.92323560     0.08700
H460        H  0.02738872  0.14409843  0.96372732     0.09900
Cu461      Cu  0.04326347  0.12456690  0.88377891     0.44200
Cu462      Cu  0.03049452  0.17154278  0.91642499     0.42000
Cu463      Cu  0.04280424  0.17637585  0.85751620     0.43900
N464        N  0.05358404  0.12895862  0.85204284    -0.33700
N465        N  0.05454805  0.14821732  0.84247359    -0.28000
C466        C  0.06471216  0.14595872  0.82310339    -0.04100
C467        C  0.07004750  0.12416158  0.82035712     0.08100
C468        C  0.06268392  0.11390385  0.83899231     0.01900
H469        H  0.06847096  0.15924363  0.81213954     0.09600
H470        H  0.06501065  0.09699229  0.84338904     0.08700
N471        N  0.03045916  0.20148173  0.87691079    -0.35200
N472        N  0.02683379  0.19998268  0.89816075    -0.27400
C473        C  0.01936498  0.21927705  0.90550188    -0.02600
C474        C  0.01794045  0.23349040  0.88805583     0.06000
C475        C  0.02503853  0.22165905  0.87019823     0.04100
H476        H  0.01478146  0.22253007  0.92222722     0.09200
H477        H  0.02627324  0.22731726  0.85353517     0.08000
C478        C  0.02498573  0.03107783  0.05376669     0.04100
C479        C  0.04211497  0.01593506  0.05269823    -0.12100
C480        C  0.05823606  0.01764908  0.03646474     0.01600
C481        C  0.05735308  0.03498131  0.02157133    -0.10600
C482        C  0.04027398  0.05018993  0.02247704     0.04100
C483        C  0.02414901  0.04818488  0.03858029    -0.10000
H484        H  0.04235298  0.00224943  0.06386541     0.09700
H485        H  0.06924322  0.03594563  0.00852983     0.07200
H486        H  0.01054572  0.05945386  0.03880541     0.07000
N487        N  0.31673264  0.87905720  0.27717487    -0.26400
N488        N  0.32915481  0.86145354  0.27754886    -0.34200
C489        C  0.31646831  0.84370029  0.27878033     0.02000
C490        C  0.29495873  0.85031216  0.27933051     0.08000
C491        C  0.29569076  0.87287878  0.27839028    -0.05100
H492        H  0.32253221  0.82718610  0.27991772     0.08700
H493        H  0.28197616  0.88395618  0.27834367     0.09900
Cu494      Cu  0.36279677  0.86181159  0.27873605     0.44200
Cu495      Cu  0.32941535  0.91038555  0.27404527     0.42000
Cu496      Cu  0.38879448  0.91360878  0.27768345     0.43900
N497        N  0.39488610  0.86615341  0.28787309    -0.33700
N498        N  0.40422033  0.88552316  0.28865357    -0.28000
C499        C  0.42334518  0.88373402  0.29923181    -0.04100
C500        C  0.42621262  0.86214219  0.30516947     0.08100
C501        C  0.40790710  0.85145281  0.29760003     0.01900
H502        H  0.43376307  0.89732608  0.30338940     0.09600
H503        H  0.40342322  0.83470008  0.30074234     0.08700
N504        N  0.36900818  0.93886749  0.26680498    -0.35200
N505        N  0.34746733  0.93804353  0.26619130    -0.27400
C506        C  0.33983841  0.95712732  0.25847794    -0.02600
C507        C  0.35741288  0.97048091  0.25385531     0.06000
C508        C  0.37562133  0.95836844  0.25930523     0.04100
H509        H  0.32277957  0.96082921  0.25602696     0.09200
H510        H  0.39247170  0.96336501  0.25800865     0.08000
N511        N  0.10065404  0.76778456  0.18811209    -0.26400
N512        N  0.11858822  0.77045631  0.17648414    -0.34200
C513        C  0.13580501  0.77139335  0.18987920     0.02000
C514        C  0.12855953  0.76914631  0.21108206     0.08000
C515        C  0.10609880  0.76705308  0.20943994    -0.05100
H516        H  0.15246918  0.77347397  0.18451272     0.08700
H517        H  0.09471118  0.76436558  0.22263541     0.09900
Cu518      Cu  0.11953939  0.77306889  0.14295774     0.44200
Cu519      Cu  0.07032114  0.76344887  0.17339225     0.42000
Cu520      Cu  0.06959042  0.76953272  0.11351953     0.43900
N521        N  0.11690028  0.78226313  0.11073416    -0.33700
N522        N  0.09818489  0.78243641  0.10009129    -0.28000
C523        C  0.10091179  0.79357903  0.08133776    -0.04100
C524        C  0.12245188  0.80036246  0.08009287     0.08100
C525        C  0.13208862  0.79277719  0.09895778     0.01900
H526        H  0.08794992  0.79746923  0.07003651     0.09600
H527        H  0.14833115  0.79648994  0.10471251     0.08700
N528        N  0.04376865  0.75698310  0.13201777    -0.35200
N529        N  0.04381632  0.75557659  0.15357957    -0.27400
C530        C  0.02469093  0.74711432  0.16024358    -0.02600
C531        C  0.01203809  0.74275740  0.14208642     0.06000
C532        C  0.02466421  0.74919159  0.12447686     0.04100
H533        H  0.02050133  0.74394053  0.17708370     0.09200
H534        H  0.02026784  0.74834272  0.10741429     0.08000
N535        N  0.23024261  0.66385678  0.39831719    -0.26400
N536        N  0.23009949  0.65158420  0.38060554    -0.34200
C537        C  0.22836366  0.66441576  0.36294625     0.02000
C538        C  0.22719474  0.68583722  0.36981623     0.08000
C539        C  0.22836131  0.68490614  0.39236889    -0.05100
H540        H  0.22711722  0.65851343  0.34636649     0.08700
H541        H  0.22790628  0.69849141  0.40360191     0.09900
Cu542      Cu  0.22908829  0.61791141  0.38128709     0.44200
Cu543      Cu  0.23332894  0.65085270  0.42949170     0.42000
Cu544      Cu  0.22731761  0.59186489  0.43394711     0.43900
N545        N  0.21806767  0.58643652  0.38588105    -0.33700
N546        N  0.21581209  0.57731283  0.40528603    -0.28000
C547        C  0.20352516  0.55923863  0.40309901    -0.04100
C548        C  0.19810054  0.55683245  0.38125048     0.08100
C549        C  0.20773399  0.57429006  0.37085821     0.01900
H550        H  0.19783483  0.54935958  0.41655393     0.09600
H551        H  0.20542563  0.57910002  0.35404196     0.08700
N552        N  0.23935258  0.61170886  0.45898658    -0.35200
N553        N  0.24068965  0.63318441  0.45749861    -0.27400
C554        C  0.24904841  0.64117077  0.47615033    -0.02600
C555        C  0.25346031  0.62395420  0.49001000     0.06000
C556        C  0.24713360  0.60550236  0.47859739     0.04100
H557        H  0.25228693  0.65823751  0.47912806     0.09200
H558        H  0.24815582  0.58879304  0.48411423     0.08000
C559        C  0.21175242  0.75797393  0.31153810     0.04100
C560        C  0.22704368  0.77466647  0.30847882    -0.12100
C561        C  0.22394704  0.79031858  0.29213428     0.01600
C562        C  0.20548976  0.78922502  0.27874568    -0.10600
C563        C  0.19011766  0.77255753  0.28162788     0.04100
C564        C  0.19321564  0.75702585  0.29813879    -0.10000
H565        H  0.24166708  0.77509277  0.31838142     0.09700
H566        H  0.20355117  0.80078671  0.26552288     0.07200
H567        H  0.18181483  0.74365527  0.29984981     0.07000
N568        N  0.82807139  0.59803126  0.73113889    -0.26400
N569        N  0.84056394  0.61522597  0.72774913    -0.34200
C570        C  0.82802442  0.63308253  0.72621064     0.02000
C571        C  0.80644713  0.62706011  0.72890006     0.08000
C572        C  0.80713020  0.60462171  0.73196175    -0.05100
H573        H  0.83423506  0.64918110  0.72267095     0.08700
H574        H  0.79347427  0.59384484  0.73471201     0.09900
Cu575      Cu  0.87394294  0.61398255  0.72358105     0.44200
Cu576      Cu  0.84052998  0.56649037  0.73407751     0.42000
Cu577      Cu  0.89915335  0.56166952  0.72362037     0.43900
N578        N  0.90523213  0.60880005  0.71238129    -0.33700
N579        N  0.91417582  0.58926284  0.71110258    -0.28000
C580        C  0.93249678  0.59060974  0.69909149    -0.04100
C581        C  0.93525361  0.61210932  0.69280911     0.08100
C582        C  0.91775010  0.62317748  0.70163507     0.01900
H583        H  0.94239870  0.57681636  0.69433036     0.09600
H584        H  0.91334917  0.64000316  0.69875213     0.08700
N585        N  0.87981125  0.53655646  0.73542797    -0.35200
N586        N  0.85845786  0.53784527  0.73822679    -0.27400
C587        C  0.85107145  0.51838125  0.74520437    -0.02600
C588        C  0.86866132  0.50438670  0.74722016     0.06000
C589        C  0.88658692  0.51646263  0.74095862     0.04100
H590        H  0.83424092  0.51486559  0.74908742     0.09200
H591        H  0.90333343  0.51099569  0.74024847     0.08000
N592        N  0.73602031  0.80758822  0.60849210    -0.26400
N593        N  0.73643011  0.82119998  0.62515037    -0.34200
C594        C  0.73445387  0.80999540  0.64380087     0.02000
C595        C  0.73228487  0.78792807  0.63911773     0.08000
C596        C  0.73349032  0.78718932  0.61632082    -0.05100
H597        H  0.73420244  0.81791502  0.65947706     0.08700
H598        H  0.73197597  0.77309042  0.60591866     0.09900
Cu599      Cu  0.73534209  0.85476935  0.62281580     0.44200
Cu600      Cu  0.73845402  0.81818800  0.57595409     0.42000
Cu601      Cu  0.72878415  0.87666992  0.56992136     0.43900
N602        N  0.72267137  0.88552785  0.61767855    -0.33700
N603        N  0.71884354  0.89314535  0.59790884    -0.28000
C604        C  0.70596775  0.91083414  0.59954188    -0.04100
C605        C  0.70165636  0.91457916  0.62143001     0.08100
C606        C  0.71264531  0.89828608  0.63244881     0.01900
H607        H  0.69900002  0.91938277  0.58578005     0.09600
H608        H  0.71142033  0.89454745  0.64964825     0.08700
N609        N  0.74011675  0.85670455  0.54487465    -0.35200
N610        N  0.74303765  0.83539497  0.54661906    -0.27400
C611        C  0.75052070  0.82774749  0.52735765    -0.02600
C612        C  0.75267760  0.84510381  0.51298494     0.06000
C613        C  0.74594592  0.86314904  0.52471032     0.04100
H614        H  0.75473020  0.81091325  0.52424755     0.09200
H615        H  0.74538098  0.87982412  0.51902620     0.08000
N616        N  0.60872627  0.72076007  0.82500819    -0.26400
N617        N  0.62452111  0.71380187  0.83782839    -0.34200
C618        C  0.64237780  0.70991681  0.82590580     0.02000
C619        C  0.63803806  0.71497129  0.80432806     0.08000
C620        C  0.61636945  0.72179207  0.80438988    -0.05100
H621        H  0.65718158  0.70311534  0.83258394     0.08700
H622        H  0.60679920  0.72707661  0.79057273     0.09900
Cu623      Cu  0.62149367  0.70834094  0.87078583     0.44200
Cu624      Cu  0.57755961  0.72695971  0.83710728     0.42000
Cu625      Cu  0.56924133  0.71013302  0.89504378     0.43900
N626        N  0.61595294  0.69715284  0.90188798    -0.33700
N627        N  0.59633303  0.69616316  0.91068069    -0.28000
C628        C  0.59766199  0.68447595  0.92929809    -0.04100
C629        C  0.61924537  0.67823370  0.93233844     0.08100
C630        C  0.63030269  0.68668068  0.91467395     0.01900
H631        H  0.58388862  0.68017509  0.93943142     0.09600
H632        H  0.64720470  0.68391505  0.91048056     0.08700
N633        N  0.54596189  0.72599974  0.87548841    -0.35200
N634        N  0.54879366  0.73141972  0.85474363    -0.27400
C635        C  0.53037727  0.74069784  0.84718317    -0.02600
C636        C  0.51529134  0.74144899  0.86392598     0.06000
C637        C  0.52574879  0.73206881  0.88163105     0.04100
H638        H  0.52822904  0.74668191  0.83072914     0.09200
H639        H  0.51903458  0.72953556  0.89774714     0.08000
C640        C  0.69946809  0.70253107  0.73340595     0.04100
C641        C  0.71556232  0.68632741  0.73521393    -0.12100
C642        C  0.73307436  0.68571890  0.72056114     0.01600
C643        C  0.73440329  0.70127800  0.70386390    -0.10600
C644        C  0.71830993  0.71740426  0.70162237     0.04100
C645        C  0.70067383  0.71769405  0.71630394    -0.10000
H646        H  0.71501145  0.67484382  0.74863190     0.09700
H647        H  0.74846173  0.70132834  0.69316048     0.07200
H648        H  0.68848993  0.73042507  0.71512835     0.07000
N649        N  0.89594089  0.71412612  0.17992285    -0.26400
N650        N  0.87911973  0.71518911  0.16653844    -0.34200
C651        C  0.86061093  0.71338954  0.17803693     0.02000
C652        C  0.86571293  0.71066726  0.19991524     0.08000
C653        C  0.88842337  0.71137747  0.20042791    -0.05100
H654        H  0.84463091  0.71369003  0.17067620     0.08700
H655        H  0.89883175  0.70933009  0.21449245     0.09900
Cu656      Cu  0.88135283  0.71464251  0.13287886     0.44200
Cu657      Cu  0.92815898  0.71621041  0.16883526     0.42000
Cu658      Cu  0.93408995  0.70661453  0.11025881     0.43900
N659        N  0.88611061  0.70130636  0.10227557    -0.33700
N660        N  0.90566644  0.69678544  0.09448018    -0.28000
C661        C  0.90346224  0.68364707  0.07701491    -0.04100
C662        C  0.88142894  0.67989915  0.07362491     0.08100
C663        C  0.87094695  0.69148907  0.08986862     0.01900
H664        H  0.91690800  0.67627866  0.06829698     0.09600
H665        H  0.85376084  0.69096495  0.09376047     0.08700
N666        N  0.95885106  0.71880319  0.13007384    -0.35200
N667        N  0.95697992  0.72178637  0.15138257    -0.27400
C668        C  0.97572043  0.73037107  0.15898237    -0.02600
C669        C  0.98994905  0.73312591  0.14162775     0.06000
C670        C  0.97868344  0.72560847  0.12358702     0.04100
H671        H  0.97851989  0.73492298  0.17579415     0.09200
H672        H  0.98437309  0.72533198  0.10688889     0.08000
N673        N  0.68167541  0.58608783  0.27788597    -0.26400
N674        N  0.66910888  0.60196014  0.28517173    -0.34200
C675        C  0.68093777  0.62007394  0.28777628     0.02000
C676        C  0.70216796  0.61588777  0.28147420     0.08000
C677        C  0.70207618  0.59398405  0.27539123    -0.05100
H678        H  0.67438676  0.63511319  0.29419242     0.08700
H679        H  0.71566690  0.58455952  0.26930253     0.09900
Cu680      Cu  0.63634688  0.59942025  0.29150914     0.44200
Cu681      Cu  0.66919357  0.55481744  0.27228467     0.42000
Cu682      Cu  0.61043412  0.54884225  0.28821272     0.43900
N683        N  0.60464270  0.59523075  0.30134192    -0.33700
N684        N  0.59503190  0.57601408  0.30153618    -0.28000
C685        C  0.57555422  0.57800745  0.31153549    -0.04100
C686        C  0.57281086  0.59967769  0.31743659     0.08100
C687        C  0.59155800  0.61007049  0.31067315     0.01900
H688        H  0.56444716  0.56468224  0.31463460     0.09600
H689        H  0.59596766  0.62689554  0.31352404     0.08700
N690        N  0.62936081  0.52495519  0.27318428    -0.35200
N691        N  0.65031374  0.52664472  0.26815871    -0.27400
C692        C  0.65700827  0.50761445  0.25944222    -0.02600
C693        C  0.63942420  0.49349702  0.25867159     0.06000
C694        C  0.62221347  0.50505051  0.26742625     0.04100
H695        H  0.67340534  0.50440103  0.25380878     0.09200
H696        H  0.60572172  0.49930370  0.26979342     0.08000
N697        N  0.77783760  0.80213857  0.39748991    -0.26400
N698        N  0.78131083  0.81490775  0.38050733    -0.34200
C699        C  0.78225859  0.80287786  0.36232412     0.02000
C700        C  0.77911225  0.78130808  0.36780517     0.08000
C701        C  0.77650015  0.78133868  0.39036140    -0.05100
H702        H  0.78548847  0.80942001  0.34626547     0.08700
H703        H  0.77354651  0.76739170  0.40072717     0.09900
Cu704      Cu  0.78614236  0.84796547  0.38199060     0.44200
Cu705      Cu  0.77487619  0.81500633  0.42898864     0.42000
Cu706      Cu  0.78855863  0.87408256  0.43322650     0.43900
N707        N  0.79809470  0.87899586  0.38536749    -0.33700
N708        N  0.80046852  0.88857620  0.40450296    -0.28000
C709        C  0.81196614  0.90709122  0.40154282    -0.04100
C710        C  0.81671247  0.90918362  0.37944082     0.08100
C711        C  0.80756621  0.89108958  0.36975901     0.01900
H712        H  0.81707873  0.91786022  0.41453549     0.09600
H713        H  0.80899540  0.88625639  0.35284920     0.08700
N714        N  0.77488216  0.85516118  0.45839635    -0.35200
N715        N  0.77070928  0.83399868  0.45708949    -0.27400
C716        C  0.76244391  0.82716374  0.47629860    -0.02600
C717        C  0.76105240  0.84480120  0.49030841     0.06000
C718        C  0.76900779  0.86226453  0.47837405     0.04100
H719        H  0.75737531  0.81062288  0.47965648     0.09200
H720        H  0.77057267  0.87893677  0.48388044     0.08000
C721        C  0.77160095  0.67974268  0.28637360     0.04100
C722        C  0.77012978  0.69566619  0.30269537    -0.12100
C723        C  0.78488811  0.71299923  0.30327929     0.01600
C724        C  0.80092641  0.71478086  0.28702519    -0.10600
C725        C  0.80301707  0.69869745  0.27070773     0.04100
C726        C  0.78849117  0.68088056  0.27097304    -0.10000
H727        H  0.75718430  0.69481482  0.31470129     0.09700
H728        H  0.81140520  0.72896688  0.28691961     0.07200
H729        H  0.78978973  0.66817664  0.25879168     0.07000
N730        N  0.73149766  0.17949205  0.89266515    -0.26400
N731        N  0.72797424  0.16701446  0.87545432    -0.34200
C732        C  0.72580752  0.17959388  0.85772084     0.02000
C733        C  0.72817598  0.20116531  0.86381176     0.08000
C734        C  0.73170106  0.20049850  0.88618671    -0.05100
H735        H  0.72199157  0.17340823  0.84165481     0.08700
H736        H  0.73428937  0.21419978  0.89696813     0.09900
Cu737      Cu  0.72400159  0.13360417  0.87625369     0.44200
Cu738      Cu  0.73535134  0.16686098  0.92402503     0.42000
Cu739      Cu  0.72267080  0.10871151  0.92874175     0.43900
N740        N  0.71266167  0.10229565  0.88099157    -0.33700
N741        N  0.71077014  0.09347619  0.90055841    -0.28000
C742        C  0.69932604  0.07482328  0.89872414    -0.04100
C743        C  0.69406944  0.07169787  0.87691908     0.08100
C744        C  0.70289387  0.08940648  0.86617329     0.01900
H745        H  0.69445406  0.06472827  0.91233719     0.09600
H746        H  0.70085238  0.09352375  0.84913986     0.08700
N747        N  0.73585136  0.12758496  0.95401012    -0.35200
N748        N  0.73982451  0.14873726  0.95248630    -0.27400
C749        C  0.74803597  0.15585850  0.97159234    -0.02600
C750        C  0.74957808  0.13835842  0.98576458     0.06000
C751        C  0.74174265  0.12071053  0.97404270     0.04100
H752        H  0.75300569  0.17246992  0.97474973     0.09200
H753        H  0.74038573  0.10406519  0.97967513     0.08000
N754        N  0.61226077  0.25842564  0.67707655    -0.26400
N755        N  0.62930418  0.26142957  0.66421399    -0.34200
C756        C  0.64711678  0.26463053  0.67650658     0.02000
C757        C  0.64119012  0.26373529  0.69824721     0.08000
C758        C  0.61890718  0.25976801  0.69800166    -0.05100
H759        H  0.66303516  0.26852525  0.67001525     0.08700
H760        H  0.60824100  0.25827662  0.71196583     0.09900
Cu761      Cu  0.62788439  0.26455183  0.63061053     0.44200
Cu762      Cu  0.58062293  0.25380691  0.66525397     0.42000
Cu763      Cu  0.57523581  0.26470331  0.60685787     0.43900
N764        N  0.62221844  0.27544736  0.59916254    -0.33700
N765        N  0.60244383  0.27672119  0.59077430    -0.28000
C766        C  0.60333529  0.28818193  0.57207381    -0.04100
C767        C  0.62478306  0.29414564  0.56843140     0.08100
C768        C  0.63631475  0.28569498  0.58587096     0.01900
H769        H  0.58929540  0.29271468  0.56242169     0.09600
H770        H  0.65332231  0.28843591  0.58960039     0.08700
N771        N  0.55034734  0.25254850  0.62627749    -0.35200
N772        N  0.55185714  0.24914973  0.64754273    -0.27400
C773        C  0.53251936  0.24170517  0.65487685    -0.02600
C774        C  0.51835235  0.24014783  0.63733182     0.06000
C775        C  0.53023930  0.24710563  0.61951642     0.04100
H776        H  0.52916370  0.23734450  0.67163834     0.09200
H777        H  0.52466347  0.24826636  0.60282191     0.08000
N778        N  0.82722726  0.38848837  0.76979148    -0.26400
N779        N  0.83895220  0.37152603  0.77598505    -0.34200
C780        C  0.82581863  0.35423201  0.77840251     0.02000
C781        C  0.80470935  0.36043801  0.77341095     0.08000
C782        C  0.80622618  0.38235059  0.76804270    -0.05100
H783        H  0.83122264  0.33847179  0.78414626     0.08700
H784        H  0.79309083  0.39309125  0.76328003     0.09900
Cu785      Cu  0.87194528  0.37254492  0.78274283     0.44200
Cu786      Cu  0.84051752  0.41927541  0.76520952     0.42000
Cu787      Cu  0.89715057  0.42513410  0.78305026     0.43900
N788        N  0.90316267  0.37775906  0.79424393    -0.33700
N789        N  0.91204522  0.39731954  0.79562369    -0.28000
C790        C  0.93098309  0.39570859  0.80659583    -0.04100
C791        C  0.93425267  0.37403897  0.81202732     0.08100
C792        C  0.91633438  0.36312901  0.80387668     0.01900
H793        H  0.94131442  0.40935509  0.81078972     0.09600
H794        H  0.91244013  0.34607733  0.80604737     0.08700
N795        N  0.87896799  0.44990216  0.76853518    -0.35200
N796        N  0.85832364  0.44795000  0.76260346    -0.27400
C797        C  0.85140120  0.46706298  0.75433968    -0.02600
C798        C  0.86856794  0.48162783  0.75482244     0.06000
C799        C  0.88579116  0.47020187  0.76383482     0.04100
H800        H  0.83518076  0.47000060  0.74809287     0.09200
H801        H  0.90203754  0.47626330  0.76698077     0.08000
C802        C  0.73039610  0.30377048  0.78380463     0.04100
C803        C  0.73120207  0.28965696  0.80179119    -0.12100
C804        C  0.71622096  0.27256277  0.80370624     0.01600
C805        C  0.70007049  0.26986713  0.78776969    -0.10600
C806        C  0.69907175  0.28391338  0.76979121     0.04100
C807        C  0.71423888  0.30092190  0.76786064    -0.10000
H808        H  0.74438421  0.29106461  0.81347235     0.09700
H809        H  0.68910601  0.25605297  0.78868546     0.07200
H810        H  0.71420324  0.31112973  0.75343876     0.07000
N811        N  0.64999510  0.41714853  0.52055436    -0.26400
N812        N  0.63205102  0.40527254  0.52074296    -0.34200
C813        C  0.61480872  0.41848006  0.52342302     0.02000
C814        C  0.62211523  0.43981371  0.52544368     0.08000
C815        C  0.64461112  0.43821960  0.52338729    -0.05100
H816        H  0.59822948  0.41266549  0.52434529     0.08700
H817        H  0.65640791  0.45121027  0.52477021     0.09900
Cu818      Cu  0.63153891  0.37143906  0.52163483     0.44200
Cu819      Cu  0.68105178  0.40412899  0.51710234     0.42000
Cu820      Cu  0.68394901  0.34565673  0.52223146     0.43900
N821        N  0.63634716  0.33975796  0.53250998    -0.33700
N822        N  0.65588809  0.33079802  0.53386478    -0.28000
C823        C  0.65452792  0.31245597  0.54579053    -0.04100
C824        C  0.63306046  0.30959777  0.55204265     0.08100
C825        C  0.62194946  0.32713084  0.54321738     0.01900
H826        H  0.66835547  0.30265899  0.55065424     0.09600
H827        H  0.60513481  0.33151937  0.54620170     0.08700
N828        N  0.70985345  0.36474899  0.51183673    -0.35200
N829        N  0.70904331  0.38624068  0.51059850    -0.27400
C830        C  0.72845748  0.39371828  0.50365019    -0.02600
C831        C  0.74206031  0.37605546  0.50022231     0.06000
C832        C  0.72972752  0.35796047  0.50555135     0.04100
H833        H  0.73224267  0.41071764  0.50095656     0.09200
H834        H  0.73481078  0.34109145  0.50497540     0.08000
N835        N  0.51986730  0.63104258  0.43551096    -0.26400
N836        N  0.52094443  0.61314281  0.42357600    -0.34200
C837        C  0.52483784  0.59599566  0.43655386     0.02000
C838        C  0.52618736  0.60312858  0.45793076     0.08000
C839        C  0.52289119  0.62555251  0.45660557    -0.05100
H840        H  0.52780626  0.57970616  0.43053606     0.08700
H841        H  0.52304681  0.63714042  0.46988138     0.09900
Cu842      Cu  0.52118654  0.61226356  0.38996327     0.44200
Cu843      Cu  0.51626226  0.66216409  0.42186255     0.42000
Cu844      Cu  0.52613055  0.66340062  0.36323282     0.43900
N845        N  0.53368159  0.61509404  0.35891927    -0.33700
N846        N  0.53703166  0.63420629  0.34960703    -0.28000
C847        C  0.55034803  0.63138916  0.33239557    -0.04100
C848        C  0.55538395  0.60942911  0.33073241     0.08100
C849        C  0.54441064  0.59956945  0.34773627     0.01900
H850        H  0.55708417  0.64451741  0.32275012     0.09600
H851        H  0.54612865  0.58285228  0.35306461     0.08700
N852        N  0.51535019  0.69023985  0.38116314    -0.35200
N853        N  0.51249120  0.69012416  0.40256868    -0.27400
C854        C  0.50602184  0.71015291  0.40895880    -0.02600
C855        C  0.50443506  0.72338213  0.39069185     0.06000
C856        C  0.51042916  0.71017222  0.37339230     0.04100
H857        H  0.50224192  0.71461164  0.42560620     0.09200
H858        H  0.51127788  0.71474342  0.35637430     0.08000
N859        N  0.44812372  0.52137510  0.65621112    -0.26400
N860        N  0.43651381  0.52407451  0.63824584    -0.34200
C861        C  0.44992164  0.52638419  0.62116067     0.02000
C862        C  0.47115839  0.52509649  0.62843021     0.08000
C863        C  0.46949549  0.52204329  0.65084087    -0.05100
H864        H  0.44452958  0.52898880  0.60456650     0.08700
H865        H  0.48276476  0.51988375  0.66224397     0.09900
Cu866      Cu  0.40297460  0.52574367  0.63675035     0.44200
Cu867      Cu  0.43332726  0.51590006  0.68660438     0.42000
Cu868      Cu  0.37378841  0.52420091  0.68647270     0.43900
N869        N  0.37053622  0.53429137  0.63867968    -0.33700
N870        N  0.35997690  0.53522388  0.65742408    -0.28000
C871        C  0.34072542  0.54524518  0.65416076    -0.04100
C872        C  0.33905931  0.55054116  0.63223414     0.08100
C873        C  0.35822084  0.54325317  0.62291407     0.01900
H874        H  0.32927141  0.54931060  0.66694707     0.09600
H875        H  0.36366337  0.54606363  0.60636703     0.08700
N876        N  0.39120894  0.51084597  0.71246325    -0.35200
N877        N  0.41265023  0.50833862  0.71286061    -0.27400
C878        C  0.41828029  0.49909770  0.73201339    -0.02600
C879        C  0.39952559  0.49536709  0.74409023     0.06000
C880        C  0.38271654  0.50301331  0.73115315     0.04100
H881        H  0.43477786  0.49490376  0.73659290     0.09200
H882        H  0.36551924  0.50289932  0.73502501     0.08000
C883        C  0.56961413  0.51651628  0.54480882     0.04100
C884        C  0.56576669  0.53201078  0.52834280    -0.12100
C885        C  0.55041501  0.54872725  0.53138525     0.01600
C886        C  0.53865634  0.54982270  0.55096953    -0.10600
C887        C  0.54203804  0.53427694  0.56738535     0.04100
C888        C  0.55800080  0.51819011  0.56454006    -0.10000
H889        H  0.57378133  0.53041316  0.51267491     0.09700
H890        H  0.52561302  0.56161995  0.55267512     0.07200
H891        H  0.56020879  0.50603243  0.57715630     0.07000
N892        N  0.18577976  0.88449849  0.73016686    -0.26400
N893        N  0.17325433  0.86761662  0.72563639    -0.34200
C894        C  0.18571834  0.84989706  0.72281353     0.02000
C895        C  0.20734858  0.85557910  0.72590561     0.08000
C896        C  0.20670867  0.87778333  0.73057886    -0.05100
H897        H  0.17938929  0.83427311  0.71773193     0.08700
H898        H  0.22037502  0.88840624  0.73378770     0.09900
Cu899      Cu  0.14007555  0.86927516  0.72056872     0.44200
Cu900      Cu  0.17320384  0.91592274  0.73375111     0.42000
Cu901      Cu  0.11559488  0.92176024  0.71753116     0.43900
N902        N  0.10971528  0.87429573  0.70712209    -0.33700
N903        N  0.10110407  0.89384933  0.70449551    -0.28000
C904        C  0.08340814  0.89204722  0.69158766    -0.04100
C905        C  0.08072788  0.87025403  0.68616665     0.08100
C906        C  0.09764357  0.85951597  0.69640115     0.01900
H907        H  0.07370866  0.90563856  0.68593103     0.09600
H908        H  0.10188053  0.84248074  0.69476679     0.08700
N909        N  0.13429703  0.94652239  0.73156328    -0.35200
N910        N  0.15520610  0.94469081  0.73661371    -0.27400
C911        C  0.16232613  0.96392583  0.74445381    -0.02600
C912        C  0.14505169  0.97843418  0.74467418     0.06000
C913        C  0.12754755  0.96683017  0.73647155     0.04100
H914        H  0.17879318  0.96700589  0.74993011     0.09200
H915        H  0.11116038  0.97280881  0.73392140     0.08000
N916        N  0.28133020  0.67052367  0.60295707    -0.26400
N917        N  0.28476988  0.65841183  0.62042753    -0.34200
C918        C  0.28579519  0.67125028  0.63808824     0.02000
C919        C  0.28270306  0.69266227  0.63171881     0.08000
C920        C  0.27999579  0.69158290  0.60920090    -0.05100
H921        H  0.28936633  0.66536999  0.65432145     0.08700
H922        H  0.27719917  0.70503468  0.59816476     0.09900
Cu923      Cu  0.28993900  0.62516981  0.62000577     0.44200
Cu924      Cu  0.27888230  0.65694676  0.57176341     0.42000
Cu925      Cu  0.29359056  0.59871953  0.56856439     0.43900
N926        N  0.30257684  0.59421950  0.61647212    -0.33700
N927        N  0.30558052  0.58493319  0.59726787    -0.28000
C928        C  0.31815281  0.56712063  0.59996742    -0.04100
C929        C  0.32291036  0.56503370  0.62199053     0.08100
C930        C  0.31265893  0.58242756  0.63193123     0.01900
H931        H  0.32421229  0.55705101  0.58680996     0.09600
H932        H  0.31414055  0.58730972  0.64882170     0.08700
N933        N  0.27902190  0.61629977  0.54331698    -0.35200
N934        N  0.27441118  0.63737305  0.54418264    -0.27400
C935        C  0.26499080  0.64333707  0.52525459    -0.02600
C936        C  0.26329337  0.62515386  0.51197872     0.06000
C937        C  0.27233806  0.60832477  0.52396484     0.04100
H938        H  0.25917619  0.65959375  0.52169491     0.09200
H939        H  0.27387259  0.59146881  0.51903664     0.08000
N940        N  0.40117819  0.76773068  0.81785732    -0.26400
N941        N  0.38320429  0.76801104  0.82978021    -0.34200
C942        C  0.36576850  0.76867162  0.81657627     0.02000
C943        C  0.37286502  0.76899482  0.79519509     0.08000
C944        C  0.39547276  0.76848684  0.79657773    -0.05100
H945        H  0.34907984  0.76956257  0.82219517     0.08700
H946        H  0.40688526  0.76846119  0.78312989     0.09900
Cu947      Cu  0.38235216  0.76980552  0.86350716     0.44200
Cu948      Cu  0.43240666  0.76570130  0.83179296     0.42000
Cu949      Cu  0.43313338  0.77078117  0.89135890     0.43900
N950        N  0.38499818  0.77856461  0.89600998    -0.33700
N951        N  0.40399452  0.77991545  0.90603352    -0.28000
C952        C  0.40118121  0.79016686  0.92521673    -0.04100
C953        C  0.37932239  0.79535308  0.92744761     0.08100
C954        C  0.36951951  0.78762570  0.90866919     0.01900
H955        H  0.41430360  0.79492493  0.93598572     0.09600
H956        H  0.35289710  0.79049082  0.90354447     0.08700
N957        N  0.45995073  0.76150047  0.87281886    -0.35200
N958        N  0.46009657  0.76034044  0.85125102    -0.27400
C959        C  0.47998999  0.75359214  0.84472330    -0.02600
C960        C  0.49279036  0.75006273  0.86303989     0.06000
C961        C  0.47952445  0.75525643  0.88051478     0.04100
H962        H  0.48453811  0.75065857  0.82793017     0.09200
H963        H  0.48369877  0.75434869  0.89763105     0.08000
C964        C  0.31296320  0.77876824  0.72304895     0.04100
C965        C  0.29786826  0.79588164  0.72486985    -0.12100
C966        C  0.28008142  0.79719746  0.71052949     0.01600
C967        C  0.27795810  0.78179979  0.69370839    -0.10600
C968        C  0.29307776  0.76481886  0.69155565     0.04100
C969        C  0.31044743  0.76324343  0.70639784    -0.10000
H970        H  0.29910944  0.80724699  0.73834518     0.09700
H971        H  0.26393202  0.78240246  0.68298332     0.07200
H972        H  0.32155724  0.74954192  0.70544894     0.07000
N973        N  0.47741216  0.12939682  0.07047682    -0.26400
N974        N  0.47175168  0.11237618  0.08237863    -0.34200
C975        C  0.46958835  0.09492165  0.06941101     0.02000
C976        C  0.47422822  0.10102312  0.04819382     0.08000
C977        C  0.47904726  0.12310137  0.04945873    -0.05100
H978        H  0.46447147  0.07903185  0.07504876     0.08700
H979        H  0.48359645  0.13376033  0.03617565     0.09900
Cu980      Cu  0.46581879  0.11328887  0.11551160     0.44200
Cu981      Cu  0.48221574  0.16015927  0.08404588     0.42000
Cu982      Cu  0.46709616  0.16482720  0.14215587     0.43900
N983        N  0.45455250  0.11779609  0.14690078    -0.33700
N984        N  0.45364370  0.13705824  0.15647646    -0.28000
C985        C  0.44234995  0.13508555  0.17524905    -0.04100
C986        C  0.43623001  0.11345466  0.17761375     0.08100
C987        C  0.44433667  0.10300504  0.15938618     0.01900
H988        H  0.43835879  0.14846581  0.18602373     0.09600
H989        H  0.44169145  0.08620130  0.15476331     0.08700
N990        N  0.48159568  0.18959508  0.12384921    -0.35200
N991        N  0.48632974  0.18819740  0.10281278    -0.27400
C992        C  0.49464559  0.20736843  0.09608915    -0.02600
C993        C  0.49547524  0.22136853  0.11375550     0.06000
C994        C  0.48716780  0.20954597  0.13107301     0.04100
H995        H  0.49999136  0.21074435  0.07961856     0.09200
H996        H  0.48497513  0.21515409  0.14765778     0.08000
N997        N  0.35609227  0.91973365  0.97622736    -0.26400
N998        N  0.37311044  0.90676713  0.97366717    -0.34200
C999        C  0.39115449  0.91885262  0.97111644     0.02000
C1000       C  0.38536231  0.94056962  0.97196116     0.08000
C1001       C  0.36296117  0.94060459  0.97514162    -0.05100
H1002       H  0.40728250  0.91228329  0.96834284     0.08700
H1003       H  0.35251954  0.95471169  0.97680737     0.09900
Cu1004     Cu  0.37120452  0.87326505  0.97158873     0.44200
Cu1005     Cu  0.32465073  0.90749190  0.98136487     0.42000
Cu1006     Cu  0.31867740  0.84837751  0.97189181     0.43900
N1007       N  0.36601591  0.84162957  0.96154069    -0.33700
N1008       N  0.34648354  0.83272857  0.95998409    -0.28000
C1009       C  0.34820952  0.81401036  0.94856562    -0.04100
C1010       C  0.36994290  0.81098677  0.94306615     0.08100
C1011       C  0.38069901  0.82874950  0.95167570     0.01900
H1012       H  0.33457601  0.80396638  0.94368775     0.09600
H1013       H  0.39759202  0.83308435  0.94911327     0.08700
N1014       N  0.29432211  0.86839903  0.98484595    -0.35200
N1015       N  0.29615500  0.88973483  0.98759855    -0.27400
C1016       C  0.27727267  0.89747728  0.99578948    -0.02600
C1017       C  0.26300879  0.88021347  0.99860194     0.06000
C1018       C  0.27440294  0.86205544  0.99155259     0.04100
H1019       H  0.27430731  0.91437913  0.99982907     0.09200
H1020       H  0.26857182  0.84543039  0.99113793     0.08000
N1021       N  0.57418662  0.01035644  0.85384226    -0.26400
N1022       N  0.58670720  0.01501260  0.87072780    -0.34200
C1023       C  0.57432188  0.01705029  0.88863879     0.02000
C1024       C  0.55277019  0.01333046  0.88308180     0.08000
C1025       C  0.55333737  0.00914772  0.86075591    -0.05100
H1026       H  0.58061369  0.02182080  0.90439559     0.08700
H1027       H  0.53966507  0.00553053  0.85025377     0.09900
Cu1028     Cu  0.61980646  0.02073811  0.86902841     0.44200
Cu1029     Cu  0.58671101  0.00685453  0.82225240     0.42000
Cu1030     Cu  0.64434660  0.02282784  0.81645235     0.43900
N1031       N  0.65019068  0.03413976  0.86389451    -0.33700
N1032       N  0.65882849  0.03643302  0.84428772    -0.28000
C1033       C  0.67646180  0.04945643  0.84593096    -0.04100
C1034       C  0.67908248  0.05530582  0.86766848     0.08100
C1035       C  0.66218571  0.04517419  0.87853753     0.01900
H1036       H  0.68612190  0.05497099  0.83224469     0.09600
H1037       H  0.65785213  0.04715991  0.89552753     0.08700
N1038       N  0.62585594  0.00797096  0.79179977    -0.35200
N1039       N  0.60491097  0.00304061  0.79358215    -0.27400
C1040       C  0.59805922  0.99421172  0.77463494    -0.02600
C1041       C  0.61553385  0.99317815  0.76035669     0.06000
C1042       C  0.63287550  0.00198537  0.77183028     0.04100
H1043       H  0.58168031  0.98842005  0.77167574     0.09200
H1044       H  0.64939673  0.00402721  0.76602852     0.08000
C1045       C  0.48023576  0.02362576  0.94284546     0.04100
C1046       C  0.48180355  0.04041211  0.95835177    -0.12100
C1047       C  0.46639181  0.04215808  0.97513646     0.01600
C1048       C  0.44932517  0.02702880  0.97640315    -0.10600
C1049       C  0.44744699  0.01034832  0.96090333     0.04100
C1050       C  0.46282471  0.00880692  0.94399145    -0.10000
H1051       H  0.49554716  0.05148952  0.95792790     0.09700
H1052       H  0.43792881  0.02778854  0.98989711     0.07200
H1053       H  0.46194542  0.99540507  0.93251401     0.07000
N1054       N  0.99020985  0.34815780  0.93096762    -0.26400
N1055       N  0.98882650  0.36585081  0.91873571    -0.34200
C1056       C  0.98584246  0.38330639  0.93160563     0.02000
C1057       C  0.98506274  0.37634253  0.95298957     0.08000
C1058       C  0.98782563  0.35394628  0.95204690    -0.05100
H1059       H  0.98318194  0.39971363  0.92573050     0.08700
H1060       H  0.98779934  0.34269059  0.96562036     0.09900
Cu1061     Cu  0.98656117  0.36551175  0.88512142     0.44200
Cu1062     Cu  0.99448508  0.31705471  0.91789399     0.42000
Cu1063     Cu  0.98380777  0.31342086  0.85944371     0.43900
N1064       N  0.97321086  0.36095949  0.85454881    -0.33700
N1065       N  0.97078890  0.34152022  0.84561672    -0.28000
C1066       C  0.95737179  0.34330194  0.82833287    -0.04100
C1067       C  0.95131684  0.36495600  0.82623080     0.08100
C1068       C  0.96176550  0.37567820  0.84304220     0.01900
H1069       H  0.95156400  0.32970477  0.81873179     0.09600
H1070       H  0.95955761  0.39251109  0.84779941     0.08700
N1071       N  0.99686553  0.28814614  0.87792333    -0.35200
N1072       N  0.00002983  0.28913837  0.89925515    -0.27400
C1073       C  0.00790454  0.26984303  0.90616576    -0.02600
C1074       C  0.01002044  0.25618352  0.88831169     0.06000
C1075       C  0.00294182  0.26834416  0.87069354     0.04100
H1076       H  0.01207029  0.26614728  0.92290367     0.09200
H1077       H  0.00196673  0.26309559  0.85387807     0.08000
N1078       N  0.06941696  0.46383120  0.14847529    -0.26400
N1079       N  0.08154911  0.45997246  0.13109444    -0.34200
C1080       C  0.06876034  0.45873947  0.11341955     0.02000
C1081       C  0.04738466  0.46196989  0.11975366     0.08000
C1082       C  0.04837603  0.46510194  0.14218991    -0.05100
H1083       H  0.07457950  0.45477018  0.09724472     0.08700
H1084       H  0.03485012  0.46795302  0.15313786     0.09900
Cu1085     Cu  0.11455283  0.45371731  0.13188900     0.44200
Cu1086     Cu  0.08289421  0.46641674  0.17965951     0.42000
Cu1087     Cu  0.14088674  0.45097914  0.18369634     0.43900
N1088       N  0.14509420  0.44032079  0.13592968    -0.33700
N1089       N  0.15446658  0.43795640  0.15518285    -0.28000
C1090       C  0.17249050  0.42561958  0.15269249    -0.04100
C1091       C  0.17459177  0.42032175  0.13077477     0.08100
C1092       C  0.15696402  0.42998261  0.12067548     0.01900
H1093       H  0.18293498  0.42038735  0.16590148     0.09600
H1094       H  0.15227556  0.42837774  0.10374372     0.08700
N1095       N  0.12291169  0.46534906  0.20897176    -0.35200
N1096       N  0.10186537  0.47001920  0.20774329    -0.27400
C1097       C  0.09528879  0.47842474  0.22695269    -0.02600
C1098       C  0.11302351  0.47944988  0.24084876     0.06000
C1099       C  0.13027480  0.47110020  0.22888439     0.04100
H1100       H  0.07887437  0.48387531  0.23037786     0.09200
H1101       H  0.14692042  0.46911884  0.23433597     0.08000
N1102       N  0.85235152  0.55372102  0.03035226    -0.26400
N1103       N  0.86993095  0.56609880  0.03158444    -0.34200
C1104       C  0.88767049  0.55339245  0.03281790     0.02000
C1105       C  0.88117781  0.53183825  0.03234739     0.08000
C1106       C  0.85859351  0.53262327  0.03088338    -0.05100
H1107       H  0.90411739  0.55948517  0.03452228     0.08700
H1108       H  0.84755793  0.51891967  0.02998519     0.09900
Cu1109     Cu  0.86971719  0.59970091  0.03345084     0.44200
Cu1110     Cu  0.82098432  0.56684554  0.02754471     0.42000
Cu1111     Cu  0.81811790  0.62630889  0.03418596     0.43900
N1112       N  0.86613350  0.63187451  0.04260064    -0.33700
N1113       N  0.84694766  0.64153333  0.04411024    -0.28000
C1114       C  0.84957083  0.66080122  0.05433153    -0.04100
C1115       C  0.87149079  0.66337375  0.05926664     0.08100
C1116       C  0.88147919  0.64475655  0.05146051     0.01900
H1117       H  0.83637600  0.67158442  0.05886628     0.09600
H1118       H  0.89830680  0.64003708  0.05377948     0.08700
N1119       N  0.79207726  0.60689477  0.02379604    -0.35200
N1120       N  0.79285747  0.58539486  0.02205388    -0.27400
C1121       C  0.77337196  0.57814996  0.01491651    -0.02600
C1122       C  0.75975771  0.59590053  0.01175535     0.06000
C1123       C  0.77219208  0.61382250  0.01755128     0.04100
H1124       H  0.76960552  0.56124545  0.01165174     0.09200
H1125       H  0.76718956  0.63072072  0.01715896     0.08000
C1126       C  0.96492985  0.43234561  0.02588395     0.04100
C1127       C  0.94623035  0.44550481  0.02524914    -0.12100
C1128       C  0.94243205  0.46100835  0.04166974     0.01600
C1129       C  0.95715716  0.46289644  0.05909706    -0.10600
C1130       C  0.97595343  0.44990520  0.05974973     0.04100
C1131       C  0.97975881  0.43469361  0.04310380    -0.10000
H1132       H  0.93534490  0.44458389  0.01136325     0.09700
H1133       H  0.95481006  0.47550966  0.07125126     0.07200
H1134       H  0.99463531  0.42515857  0.04318906     0.07000
N1135       N  0.31572956  0.08590820  0.22975963    -0.26400
N1136       N  0.32837031  0.10329174  0.23048352    -0.34200
C1137       C  0.31605271  0.12120594  0.22852605     0.02000
C1138       C  0.29443848  0.11508584  0.22582068     0.08000
C1139       C  0.29493873  0.09242092  0.22693567    -0.05100
H1140       H  0.32279686  0.13743623  0.22845458     0.08700
H1141       H  0.28144917  0.08131763  0.22482473     0.09900
Cu1142     Cu  0.36204759  0.10283408  0.22867626     0.44200
Cu1143     Cu  0.32793339  0.05430267  0.23162081     0.42000
Cu1144     Cu  0.38623557  0.05080957  0.22117467     0.43900
N1145       N  0.39270040  0.09897294  0.21510814    -0.33700
N1146       N  0.40113125  0.07955090  0.21121278    -0.28000
C1147       C  0.41872283  0.08188172  0.19833507    -0.04100
C1148       C  0.42157148  0.10385278  0.19403941     0.08100
C1149       C  0.40483797  0.11423109  0.20503951     0.01900
H1150       H  0.42796709  0.06848739  0.19154143     0.09600
H1151       H  0.40057773  0.13130978  0.20405863     0.08700
N1152       N  0.36743725  0.02490142  0.23227753    -0.35200
N1153       N  0.34616981  0.02597178  0.23567555    -0.27400
C1154       C  0.33921887  0.00663659  0.24338309    -0.02600
C1155       C  0.35698507  0.99283706  0.24507990     0.06000
C1156       C  0.37457515  0.00494594  0.23787790     0.04100
H1157       H  0.32259504  0.00314438  0.24808920     0.09200
H1158       H  0.39141028  0.99977591  0.23708721     0.08000
N1159       N  0.22827330  0.29925812  0.10125673    -0.26400
N1160       N  0.22597350  0.31153441  0.11882892    -0.34200
C1161       C  0.22326037  0.29876040  0.13635146     0.02000
C1162       C  0.22390659  0.27723703  0.12976153     0.08000
C1163       C  0.22707331  0.27814512  0.10731918    -0.05100
H1164       H  0.22002202  0.30482689  0.15259667     0.08700
H1165       H  0.22826208  0.26451728  0.09619845     0.09900
Cu1166     Cu  0.22322483  0.34500589  0.11880259     0.44200
Cu1167     Cu  0.23174031  0.31244415  0.06990682     0.42000
Cu1168     Cu  0.21876219  0.37072208  0.06717253     0.43900
N1169       N  0.21055184  0.37589045  0.11527866    -0.33700
N1170       N  0.20748238  0.38499817  0.09600749    -0.28000
C1171       C  0.19499756  0.40287507  0.09863506    -0.04100
C1172       C  0.19025301  0.40515062  0.12065420     0.08100
C1173       C  0.20048168  0.38779998  0.13069708     0.01900
H1174       H  0.18899290  0.41288878  0.08542042     0.09600
H1175       H  0.19912143  0.38311050  0.14765083     0.08700
N1176       N  0.23061940  0.35252163  0.04088078    -0.35200
N1177       N  0.23473256  0.33134347  0.04155569    -0.27400
C1178       C  0.24172496  0.32485674  0.02170707    -0.02600
C1179       C  0.24230544  0.34282670  0.00799390     0.06000
C1180       C  0.23519766  0.36003732  0.02075277     0.04100
H1181       H  0.24653646  0.30837554  0.01770051     0.09200
H1182       H  0.23342201  0.37684638  0.01575449     0.08000
N1183       N  0.10666154  0.21510144  0.31817829    -0.26400
N1184       N  0.12434631  0.21138989  0.32986117    -0.34200
C1185       C  0.14151884  0.20943605  0.31651427     0.02000
C1186       C  0.13450726  0.21209456  0.29524964     0.08000
C1187       C  0.11221167  0.21566237  0.29691195    -0.05100
H1188       H  0.15774143  0.20517975  0.32192415     0.08700
H1189       H  0.10079302  0.21811018  0.28370998     0.09900
Cu1190     Cu  0.12460068  0.20626380  0.36307443     0.44200
Cu1191     Cu  0.07599278  0.21775977  0.33229697     0.42000
Cu1192     Cu  0.07349735  0.20536387  0.39101025     0.43900
N1193       N  0.12145836  0.19496677  0.39456055    -0.33700
N1194       N  0.10247948  0.19346661  0.40463425    -0.28000
C1195       C  0.10533301  0.18208837  0.42320976    -0.04100
C1196       C  0.12718628  0.17646698  0.42493473     0.08100
C1197       C  0.13689791  0.18497934  0.40650378     0.01900
H1198       H  0.09231929  0.17737683  0.43413638     0.09600
H1199       H  0.15354717  0.18252003  0.40124183     0.08700
N1200       N  0.04733673  0.21745343  0.37264353    -0.35200
N1201       N  0.04818190  0.22108128  0.35136540    -0.27400
C1202       C  0.02864153  0.22828729  0.34451118    -0.02600
C1203       C  0.01485503  0.22956845  0.36228437     0.06000
C1204       C  0.02723491  0.22263651  0.37987167     0.04100
H1205       H  0.02493380  0.23279781  0.32786542     0.09200
H1206       H  0.02199883  0.22137001  0.39667230     0.08000
C1207       C  0.20779895  0.20512659  0.18809146     0.04100
C1208       C  0.19165432  0.20804590  0.20395140    -0.12100
C1209       C  0.19048750  0.19403454  0.22191213     0.01600
C1210       C  0.20571310  0.17708833  0.22411682    -0.10600
C1211       C  0.22192090  0.17385073  0.20821770     0.04100
C1212       C  0.22233145  0.18761947  0.18984292    -0.10000
H1213       H  0.18094785  0.22207670  0.20308071     0.09700
H1214       H  0.20567521  0.16732226  0.23883535     0.07200
H1215       H  0.23491848  0.18569840  0.17759780     0.07000
N1216       N  0.14978820  0.05409987  0.48118226    -0.26400
N1217       N  0.13362732  0.06734974  0.47612295    -0.34200
C1218       C  0.11549619  0.05576736  0.47258670     0.02000
C1219       C  0.12002335  0.03392457  0.47588086     0.08000
C1220       C  0.14210270  0.03347965  0.48127297    -0.05100
H1221       H  0.10033019  0.06288506  0.46715813     0.08700
H1222       H  0.15190267  0.01930821  0.48493965     0.09900
Cu1223     Cu  0.13649789  0.10046719  0.47224347     0.44200
Cu1224     Cu  0.18134890  0.06594885  0.48632458     0.42000
Cu1225     Cu  0.18857028  0.12436470  0.47036598     0.43900
N1226       N  0.14134146  0.13131156  0.46028054    -0.33700
N1227       N  0.16089148  0.13989897  0.45773881    -0.28000
C1228       C  0.15894737  0.15805763  0.44546448    -0.04100
C1229       C  0.13703626  0.16100848  0.44047673     0.08100
C1230       C  0.12643476  0.14378425  0.45024638     0.01900
H1231       H  0.17248188  0.16786696  0.43987675     0.09600
H1232       H  0.10940607  0.13955493  0.44857500     0.08700
N1233       N  0.21233284  0.10485432  0.48531974    -0.35200
N1234       N  0.21003747  0.08397629  0.49040957    -0.27400
C1235       C  0.22880006  0.07671403  0.49926606    -0.02600
C1236       C  0.24346815  0.09382032  0.50008717     0.06000
C1237       C  0.23245146  0.11137521  0.49118187     0.04100
H1238       H  0.23143018  0.06026500  0.50503234     0.09200
H1239       H  0.23868979  0.12769749  0.48889696     0.08000
N1240       N  0.93336203  0.97113599  0.35070936    -0.26400
N1241       N  0.92081277  0.96913903  0.36809506    -0.34200
C1242       C  0.93330622  0.96790411  0.38598169     0.02000
C1243       C  0.95491707  0.96912089  0.37974586     0.08000
C1244       C  0.95436088  0.97117318  0.35717850    -0.05100
H1245       H  0.92708450  0.96487746  0.40220733     0.08700
H1246       H  0.96814591  0.97218168  0.34623408     0.09900
Cu1247     Cu  0.88771594  0.96377481  0.36693554     0.44200
Cu1248     Cu  0.92052211  0.97247625  0.31926504     0.42000
Cu1249     Cu  0.86317263  0.95601920  0.31462014     0.43900
N1250       N  0.85848429  0.94783340  0.36294465    -0.33700
N1251       N  0.84997576  0.94339816  0.34364976    -0.28000
C1252       C  0.83319514  0.92949313  0.34654751    -0.04100
C1253       C  0.83102023  0.92530680  0.36873697     0.08100
C1254       C  0.84730364  0.93727881  0.37856048     0.01900
H1255       H  0.82371966  0.92242547  0.33346544     0.09600
H1256       H  0.85173429  0.93709183  0.39563554     0.08700
N1257       N  0.88086229  0.97149705  0.28963578    -0.35200
N1258       N  0.90180062  0.97650464  0.29117281    -0.27400
C1259       C  0.90828981  0.98608056  0.27250759    -0.02600
C1260       C  0.89061135  0.98756426  0.25860174     0.06000
C1261       C  0.87346864  0.97820662  0.27001010     0.04100
H1262       H  0.92457108  0.99214541  0.26954402     0.09200
H1263       H  0.85685913  0.97634099  0.26441743     0.08000
N1264       N  0.02740434  0.84258972  0.56368755    -0.26400
N1265       N  0.02852181  0.86030500  0.57590946    -0.34200
C1266       C  0.02842885  0.87795006  0.56297584     0.02000
C1267       C  0.02736485  0.87114926  0.54150288     0.08000
C1268       C  0.02681988  0.84857830  0.54253620    -0.05100
H1269       H  0.03005969  0.89452018  0.56876656     0.08700
H1270       H  0.02608679  0.83734862  0.52895813     0.09900
Cu1271     Cu  0.03323316  0.86013491  0.60935338     0.44200
Cu1272     Cu  0.02642776  0.81128947  0.57681948     0.42000
Cu1273     Cu  0.03686124  0.80792196  0.63526639     0.43900
N1274       N  0.04590879  0.85593681  0.64035607    -0.33700
N1275       N  0.04838717  0.83657674  0.64946541    -0.28000
C1276       C  0.06036736  0.83883735  0.66771785    -0.04100
C1277       C  0.06543842  0.86069332  0.67029534     0.08100
C1278       C  0.05592277  0.87105644  0.65269464     0.01900
H1279       H  0.06573398  0.82546005  0.67787261     0.09600
H1280       H  0.05758430  0.88803720  0.64827071     0.08700
N1281       N  0.02440725  0.78230153  0.61669068    -0.35200
N1282       N  0.02141051  0.78326543  0.59533553    -0.27400
C1283       C  0.01317663  0.76413582  0.58839944    -0.02600
C1284       C  0.01061915  0.75057556  0.60624663     0.06000
C1285       C  0.01787957  0.76263366  0.62390127     0.04100
H1286       H  0.00876679  0.76061081  0.57168752     0.09200
H1287       H  0.01834622  0.75751776  0.64077745     0.08000
C1288       C  0.02560603  0.95290524  0.43965684     0.04100
C1289       C  0.04263151  0.96779612  0.44279077    -0.12100
C1290       C  0.05765896  0.96482702  0.45980263     0.01600
C1291       C  0.05561400  0.94670043  0.47360011    -0.10600
C1292       C  0.03838453  0.93192533  0.47078358     0.04100
C1293       C  0.02348847  0.93502129  0.45372902    -0.10000
H1294       H  0.04370266  0.98212532  0.43251352     0.09700
H1295       H  0.06661729  0.94481244  0.48729545     0.07200
H1296       H  0.00970662  0.92411417  0.45203667     0.07000
C1297       C  0.01975847  0.91999580  0.50470222     0.24500
C1298       C  0.03416238  0.91525825  0.48758313    -0.23600
C1299       C  0.04507103  0.89516142  0.48727038     0.19400
C1300       C  0.04210675  0.88020691  0.50431547     0.24500
C1301       C  0.02842645  0.88537843  0.52202870    -0.23500
C1302       C  0.01695206  0.90523109  0.52181554     0.19400
F1303       F  0.00303869  0.91037959  0.53825060    -0.13500
F1304       F  0.00887145  0.93925951  0.50511250    -0.15800
F1305       F  0.05350099  0.86125042  0.50407204    -0.15800
F1306       F  0.05895237  0.89028674  0.47073351    -0.13500
C1307       C  0.99238328  0.95425594  0.38757708     0.24500
C1308       C  0.97399528  0.96627717  0.39431183    -0.23600
C1309       C  0.97325457  0.97435549  0.41580850     0.19400
C1310       C  0.99020330  0.97005339  0.43037380     0.24500
C1311       C  0.00825888  0.95774007  0.42375886    -0.23500
C1312       C  0.00938706  0.94999442  0.40225342     0.19400
F1313       F  0.02671260  0.93792046  0.39564743    -0.13500
F1314       F  0.99346828  0.94575082  0.36717263    -0.15800
F1315       F  0.98891104  0.97769727  0.45111871    -0.15800
F1316       F  0.95615313  0.98656321  0.42275131    -0.13500
C1317       C  0.08179233  0.01918271  0.47562612     0.24500
C1318       C  0.10437808  0.01554119  0.47307405    -0.23600
C1319       C  0.11146752  0.99452871  0.46696166     0.19400
C1320       C  0.09631350  0.97787135  0.46296364     0.24500
C1321       C  0.07387371  0.98198432  0.46464901    -0.23500
C1322       C  0.06677359  0.00268668  0.47119246     0.19400
F1323       F  0.04517084  0.00684956  0.47363245    -0.13500
F1324       F  0.07406448  0.03859747  0.48287231    -0.15800
F1325       F  0.10350350  0.95788605  0.45677538    -0.15800
F1326       F  0.13294794  0.99020540  0.46405605    -0.13500
C1327       C  0.18401622  0.20973121  0.25861332     0.24500
C1328       C  0.17569353  0.19935329  0.24005844    -0.23600
C1329       C  0.15335993  0.19466438  0.23882273     0.19400
C1330       C  0.13961182  0.19947627  0.25644283     0.24500
C1331       C  0.14808534  0.20923797  0.27545050    -0.23500
C1332       C  0.17033820  0.21483543  0.27605574     0.19400
F1333       F  0.17889600  0.22545476  0.29348130    -0.13500
F1334       F  0.20547314  0.21499341  0.25976900    -0.15800
F1335       F  0.11831424  0.19368185  0.25522682    -0.15800
F1336       F  0.14502891  0.18488350  0.22080536    -0.13500
C1337       C  0.22834425  0.25836480  0.16567162     0.24500
C1338       C  0.22071218  0.25793250  0.14400359    -0.23600
C1339       C  0.20921360  0.23943810  0.13666863     0.19400
C1340       C  0.20510895  0.22198734  0.15088749     0.24500
C1341       C  0.21238315  0.22284506  0.17254391    -0.23500
C1342       C  0.22418811  0.24100728  0.17975603     0.19400
F1343       F  0.23169531  0.24189455  0.20057721    -0.13500
F1344       F  0.24011714  0.27548842  0.17323793    -0.15800
F1345       F  0.19365288  0.20449222  0.14370779    -0.15800
F1346       F  0.20113728  0.23861809  0.11609075    -0.13500
C1347       C  0.26175321  0.16503495  0.20891726     0.24500
C1348       C  0.24012417  0.15827040  0.21218567    -0.23600
C1349       C  0.23633269  0.13700219  0.21990899     0.19400
C1350       C  0.25382807  0.12294532  0.22442963     0.24500
C1351       C  0.27555124  0.12969926  0.22090667    -0.23500
C1352       C  0.27909868  0.15086237  0.21262268     0.19400
F1353       F  0.29933877  0.15807500  0.20754227    -0.13500
F1354       F  0.26633411  0.18576574  0.20268999    -0.15800
F1355       F  0.24934705  0.10292258  0.23263654    -0.15800
F1356       F  0.21567120  0.12972412  0.22297479    -0.13500
C1357       C  0.91613854  0.51316556  0.02290559     0.24500
C1358       C  0.89578345  0.51259309  0.03349393    -0.23600
C1359       C  0.89033349  0.49416740  0.04608192     0.19400
C1360       C  0.90534263  0.47705612  0.04862896     0.24500
C1361       C  0.92578213  0.47805127  0.03838062    -0.23500
C1362       C  0.93093749  0.49606687  0.02533226     0.19400
F1363       F  0.95063190  0.49728693  0.01530090    -0.13500
F1364       F  0.92173813  0.53028048  0.01005736    -0.15800
F1365       F  0.90012526  0.45974671  0.06137293    -0.15800
F1366       F  0.87096283  0.49317230  0.05671827    -0.13500
C1367       C  0.01227219  0.46501128  0.06911427     0.24500
C1368       C  0.99325115  0.45433202  0.07587088    -0.23600
C1369       C  0.99133873  0.44741732  0.09761141     0.19400
C1370       C  0.00861622  0.45056854  0.11227805     0.24500
C1371       C  0.02803298  0.46065956  0.10530715    -0.23500
C1372       C  0.02946601  0.46820732  0.08366113     0.19400
F1373       F  0.04753677  0.47877666  0.07652497    -0.13500
F1374       F  0.01422338  0.47221511  0.04826372    -0.15800
F1375       F  0.00677236  0.44272354  0.13288671    -0.15800
F1376       F  0.97311073  0.43687087  0.10436331    -0.13500
C1377       C  0.99252146  0.40911163  0.97585453     0.24500
C1378       C  0.98039552  0.39004380  0.97222323    -0.23600
C1379       C  0.96311243  0.38489275  0.98636898     0.19400
C1380       C  0.95788375  0.39878767  0.00374763     0.24500
C1381       C  0.97017413  0.41771396  0.00747436    -0.23500
C1382       C  0.98761495  0.42270613  0.99349722     0.19400
F1383       F  0.99962864  0.44099382  0.99673337    -0.13500
F1384       F  0.00929164  0.41442668  0.96242359    -0.15800
F1385       F  0.94090394  0.39375999  0.01701063    -0.15800
F1386       F  0.95080395  0.36686217  0.98286320    -0.13500
C1387       C  0.53607936  0.01045950  0.92045996     0.24500
C1388       C  0.53359681  0.01475159  0.89797955    -0.23600
C1389       C  0.51289507  0.02118047  0.89027385     0.19400
C1390       C  0.49535181  0.02367908  0.90476997     0.24500
C1391       C  0.49824043  0.02010166  0.92718547    -0.23500
C1392       C  0.51865488  0.01330162  0.93486388     0.19400
F1393       F  0.52165436  0.00919878  0.95642122    -0.13500
F1394       F  0.55527919  0.00311392  0.92861065    -0.15800
F1395       F  0.47570544  0.03026867  0.89703467    -0.15800
F1396       F  0.50974807  0.02591979  0.86889868    -0.13500
C1397       C  0.43468478  0.97668613  0.97958705     0.24500
C1398       C  0.43101968  0.99304461  0.96402431    -0.23600
C1399       C  0.41176319  0.99270314  0.95166651     0.19400
C1400       C  0.39642111  0.97602039  0.95471185     0.24500
C1401       C  0.40038405  0.95929980  0.96989731    -0.23500
C1402       C  0.41961695  0.95983148  0.98234209     0.19400
F1403       F  0.42371609  0.94408355  0.99734126    -0.13500
F1404       F  0.45306559  0.97690709  0.99190625    -0.15800
F1405       F  0.37817047  0.97569386  0.94222285    -0.15800
F1406       F  0.40791213  0.00847208  0.93663523    -0.13500
C1407       C  0.46451421  0.08000186  0.99058366     0.24500
C1408       C  0.46965872  0.05784656  0.99307161    -0.23600
C1409       C  0.47747542  0.05031752  0.01316414     0.19400
C1410       C  0.47960682  0.06454565  0.03078380     0.24500
C1411       C  0.47371290  0.08663805  0.02873794    -0.23500
C1412       C  0.46647212  0.09433725  0.00832148     0.19400
F1413       F  0.46035270  0.11543556  0.00576217    -0.13500
F1414       F  0.45694384  0.08756034  0.97120806    -0.15800
F1415       F  0.48771102  0.05667467  0.04980993    -0.15800
F1416       F  0.48301922  0.02904740  0.01570141    -0.13500
C1417       C  0.36314354  0.78534091  0.75876812     0.24500
C1418       C  0.35875109  0.77033380  0.77557265    -0.23600
C1419       C  0.33972869  0.75758181  0.77433081     0.19400
C1420       C  0.32527214  0.75997199  0.75685634     0.24500
C1421       C  0.32933369  0.77537132  0.74044574    -0.23500
C1422       C  0.34839043  0.78800727  0.74144615     0.19400
F1423       F  0.35248861  0.80315171  0.72584892    -0.13500
F1424       F  0.38110599  0.79819378  0.75969841    -0.15800
F1425       F  0.30688237  0.74769339  0.75626913    -0.15800
F1426       F  0.33510098  0.74276119  0.79009732    -0.13500
C1427       C  0.27693686  0.71024338  0.66822801     0.24500
C1428       C  0.28348126  0.71209314  0.64624888    -0.23600
C1429       C  0.29187351  0.73219745  0.63892817     0.19400
C1430       C  0.29459172  0.74961374  0.65354168     0.24500
C1431       C  0.28914271  0.74714919  0.67564836    -0.23500
C1432       C  0.27990146  0.72753083  0.68275775     0.19400
F1433       F  0.27374025  0.72513388  0.70389307    -0.13500
F1434       F  0.26742506  0.69174019  0.67571662    -0.15800
F1435       F  0.30310613  0.76868105  0.64626583    -0.15800
F1436       F  0.29835796  0.73475987  0.61792689    -0.13500
C1437       C  0.22439685  0.81829863  0.72600851     0.24500
C1438       C  0.22661843  0.84100607  0.72311692    -0.23600
C1439       C  0.24713651  0.84926570  0.71674802     0.19400
C1440       C  0.26471377  0.83511160  0.71294063     0.24500
C1441       C  0.26201369  0.81250783  0.71504177    -0.23500
C1442       C  0.24180720  0.80426946  0.72177741     0.19400
F1443       F  0.23903448  0.78249826  0.72460062    -0.13500
F1444       F  0.20550119  0.80950823  0.73338252    -0.15800
F1445       F  0.28420056  0.84341693  0.70658490    -0.15800
F1446       F  0.25010679  0.87090525  0.71340897    -0.13500
C1447       C  0.50886733  0.53904815  0.61962657     0.24500
C1448       C  0.49076104  0.52596552  0.61433016    -0.23600
C1449       C  0.49053244  0.51491251  0.59423034     0.19400
C1450       C  0.50756654  0.51744692  0.57942010     0.24500
C1451       C  0.52516819  0.53114846  0.58425395    -0.23500
C1452       C  0.52594723  0.54175771  0.60454577     0.19400
F1453       F  0.54291863  0.55503446  0.60949492    -0.13500
F1454       F  0.50949157  0.55001936  0.63883586    -0.15800
F1455       F  0.50668595  0.50685331  0.55998689    -0.15800
F1456       F  0.47369618  0.50162466  0.58883889    -0.13500
C1457       C  0.53304828  0.55395518  0.49506137     0.24500
C1458       C  0.54420252  0.56288857  0.51288954    -0.23600
C1459       C  0.54882871  0.58526959  0.51309763     0.19400
C1460       C  0.54287037  0.59848459  0.49540027     0.24500
C1461       C  0.53178031  0.58955674  0.47732111    -0.23500
C1462       C  0.52672401  0.56711628  0.47757061     0.19400
F1463       F  0.51518412  0.55784392  0.46113843    -0.13500
F1464       F  0.52788232  0.53244247  0.49481032    -0.15800
F1465       F  0.54866659  0.61980376  0.49572928    -0.15800
F1466       F  0.55956450  0.59421941  0.53024828    -0.13500
C1467       C  0.58852687  0.45768712  0.54098051     0.24500
C1468       C  0.60891002  0.45961523  0.53053523    -0.23600
C1469       C  0.61647741  0.48067696  0.52522716     0.19400
C1470       C  0.60403478  0.49918024  0.53029517     0.24500
C1471       C  0.58352942  0.49709564  0.54036579    -0.23500
C1472       C  0.57590122  0.47608107  0.54545183     0.19400
F1473       F  0.55581301  0.47314546  0.55425815    -0.13500
F1474       F  0.58073047  0.43803916  0.54739444    -0.15800
F1475       F  0.61216870  0.51917803  0.52548789    -0.15800
F1476       F  0.63569634  0.48350558  0.51466710    -0.13500
C1477       C  0.78658288  0.32410530  0.76992172     0.24500
C1478       C  0.78499356  0.34651046  0.77462405    -0.23600
C1479       C  0.76472756  0.35504618  0.78135197     0.19400
C1480       C  0.74667955  0.34126322  0.78395570     0.24500
C1481       C  0.74867462  0.31885129  0.77991331    -0.23500
C1482       C  0.76863017  0.31044248  0.77264726     0.19400
F1483       F  0.77071359  0.28885380  0.76825779    -0.13500
F1484       F  0.80547089  0.31537080  0.76240717    -0.15800
F1485       F  0.72747133  0.34964193  0.79105732    -0.15800
F1486       F  0.76258007  0.37648204  0.78634794    -0.13500
C1487       C  0.67747163  0.26116902  0.71684304     0.24500
C1488       C  0.65559138  0.26813225  0.71719243    -0.23600
C1489       C  0.64807028  0.28020167  0.73525127     0.19400
C1490       C  0.66226743  0.28551509  0.75235258     0.24500
C1491       C  0.68411175  0.27884659  0.75167416    -0.23500
C1492       C  0.69157417  0.26648785  0.73393969     0.19400
F1493       F  0.71252677  0.25938265  0.73333115    -0.13500
F1494       F  0.68513644  0.24880879  0.70015136    -0.15800
F1495       F  0.65480082  0.29740291  0.76946687    -0.15800
F1496       F  0.62723124  0.28755586  0.73601869    -0.13500
C1497       C  0.71716176  0.24013728  0.85636726     0.24500
C1498       C  0.72642615  0.22035461  0.84917198    -0.23600
C1499       C  0.73311947  0.21856800  0.82726048     0.19400
C1500       C  0.72980359  0.23570288  0.81271537     0.24500
C1501       C  0.72002929  0.25509642  0.81973791    -0.23500
C1502       C  0.71404149  0.25742804  0.84170381     0.19400
F1503       F  0.70464727  0.27617877  0.84875921    -0.13500
F1504       F  0.71029002  0.24246302  0.87727678    -0.15800
F1505       F  0.73617517  0.23340208  0.79162386    -0.15800
F1506       F  0.74319113  0.20030994  0.81987055    -0.13500
C1507       C  0.78914994  0.74288990  0.35724198     0.24500
C1508       C  0.77899501  0.76283338  0.35221027    -0.23600
C1509       C  0.76994918  0.76572701  0.33128078     0.19400
C1510       C  0.77186705  0.74947467  0.31543920     0.24500
C1511       C  0.78265379  0.72994003  0.32023649    -0.23500
C1512       C  0.79091323  0.72653484  0.34133327     0.19400
F1513       F  0.80111492  0.70755073  0.34632074    -0.13500
F1514       F  0.79821105  0.73958721  0.37715834    -0.15800
F1515       F  0.76312942  0.75277394  0.29537074    -0.15800
F1516       F  0.75901297  0.78427290  0.32618190    -0.13500
C1517       C  0.71599136  0.65436709  0.27935362     0.24500
C1518       C  0.72043220  0.63188947  0.28148156    -0.23600
C1519       C  0.74225122  0.62524278  0.28434990     0.19400
C1520       C  0.75903498  0.64073530  0.28558024     0.24500
C1521       C  0.75427646  0.66308684  0.28434769    -0.23500
C1522       C  0.73266153  0.66972040  0.28103373     0.19400
F1523       F  0.72770737  0.69120044  0.27901757    -0.13500
F1524       F  0.69555514  0.66167694  0.27512283    -0.15800
F1525       F  0.77985932  0.63396269  0.28868643    -0.15800
F1526       F  0.74733980  0.60387077  0.28676534    -0.13500
C1527       C  0.82909518  0.69841970  0.21421645     0.24500
C1528       C  0.85008408  0.70688534  0.21828640    -0.23600
C1529       C  0.85568147  0.71192393  0.24001356     0.19400
C1530       C  0.84070515  0.70877813  0.25704140     0.24500
C1531       C  0.81947013  0.70108100  0.25279171    -0.23500
C1532       C  0.81392746  0.69603199  0.23106742     0.19400
F1533       F  0.79351405  0.68933351  0.22581211    -0.13500
F1534       F  0.82307652  0.69198976  0.19393208    -0.15800
F1535       F  0.84718617  0.71305851  0.27776613    -0.15800
F1536       F  0.87549121  0.72039795  0.24490510    -0.13500
C1537       C  0.64596372  0.70895609  0.76418746     0.24500
C1538       C  0.65343868  0.71258839  0.78565661    -0.23600
C1539       C  0.67612453  0.71323409  0.78937080     0.19400
C1540       C  0.69081281  0.70953261  0.77241278     0.24500
C1541       C  0.68336741  0.70560167  0.75116059    -0.23500
C1542       C  0.66083297  0.70565780  0.74707697     0.19400
F1543       F  0.65322145  0.70200747  0.72661630    -0.13500
F1544       F  0.62433580  0.70796725  0.75974407    -0.15800
F1545       F  0.71250738  0.71044048  0.77667562    -0.15800
F1546       F  0.68434977  0.71810874  0.80931498    -0.13500
C1547       C  0.72348100  0.77395006  0.67724819     0.24500
C1548       C  0.72841080  0.76963196  0.65505985    -0.23600
C1549       C  0.72956139  0.74753804  0.64850834     0.19400
C1550       C  0.72584942  0.73062654  0.66346214     0.24500
C1551       C  0.72116847  0.73520070  0.68541285    -0.23500
C1552       C  0.72016667  0.75701627  0.69211698     0.19400
F1553       F  0.71658804  0.76205881  0.71339506    -0.13500
F1554       F  0.72162773  0.79450886  0.68503267    -0.15800
F1555       F  0.72667973  0.70967473  0.65639534    -0.15800
F1556       F  0.73463321  0.74196457  0.62773913    -0.13500
C1557       C  0.76692982  0.63408194  0.71988978     0.24500
C1558       C  0.78708816  0.64164071  0.72793524    -0.23600
C1559       C  0.78878609  0.66360459  0.73450538     0.19400
C1560       C  0.77104790  0.67775017  0.73240985     0.24500
C1561       C  0.75121343  0.67026275  0.72392023    -0.23500
C1562       C  0.74910871  0.64827456  0.71806796     0.19400
F1563       F  0.72996434  0.64072657  0.70997318    -0.13500
F1564       F  0.76466007  0.61324472  0.71286352    -0.15800
F1565       F  0.77318132  0.69883850  0.73876370    -0.15800
F1566       F  0.80751250  0.67142432  0.74328345    -0.13500
C1567       C  0.23656993  0.70758413  0.33670088     0.24500
C1568       C  0.22411276  0.70518399  0.35579800    -0.23600
C1569       C  0.20803746  0.72078707  0.36071942     0.19400
C1570       C  0.20398429  0.73806972  0.34633705     0.24500
C1571       C  0.21631362  0.74026462  0.32717446    -0.23500
C1572       C  0.23287369  0.72513570  0.32264897     0.19400
F1573       F  0.24511726  0.72710822  0.30430538    -0.13500
F1574       F  0.25246038  0.69300098  0.33173860    -0.15800
F1575       F  0.18800537  0.75263350  0.35104102    -0.15800
F1576       F  0.19564508  0.71878079  0.37894860    -0.13500
C1577       C  0.16207431  0.75588733  0.22972937     0.24500
C1578       C  0.14260547  0.76796291  0.23065127    -0.23600
C1579       C  0.13784267  0.78006392  0.24957047     0.19400
C1580       C  0.15297878  0.78102309  0.26672409     0.24500
C1581       C  0.17279836  0.76965716  0.26522218    -0.23500
C1582       C  0.17699541  0.75671511  0.24686677     0.19400
F1583       F  0.19600119  0.74549995  0.24520737    -0.13500
F1584       F  0.16679121  0.74342498  0.21204701    -0.15800
F1585       F  0.14867188  0.79357712  0.28443842    -0.15800
F1586       F  0.11922592  0.79194249  0.25089386    -0.13500
C1587       C  0.25880933  0.84097266  0.29604211     0.24500
C1588       C  0.27572317  0.83595476  0.28136856    -0.23600
C1589       C  0.27481648  0.81632836  0.26952679     0.19400
C1590       C  0.25757539  0.80178997  0.27263736     0.24500
C1591       C  0.24110778  0.80651668  0.28777705    -0.23500
C1592       C  0.24168902  0.82623649  0.29933333     0.19400
F1593       F  0.22593499  0.83093704  0.31415061    -0.13500
F1594       F  0.25942552  0.85957483  0.30799830    -0.15800
F1595       F  0.25715659  0.78284327  0.26120639    -0.15800
F1596       F  0.29061495  0.81124704  0.25487236    -0.13500
C1597       C  0.02925384  0.05959369  0.98465907     0.24500
C1598       C  0.03771106  0.06630785  0.00478918    -0.23600
C1599       C  0.04380097  0.08815732  0.00768521     0.19400
C1600       C  0.04204649  0.10300832  0.99036167     0.24500
C1601       C  0.03412932  0.09614565  0.96989416    -0.23500
C1602       C  0.02732626  0.07435067  0.96743164     0.19400
F1603       F  0.01852091  0.06729467  0.94839591    -0.13500
F1604       F  0.02288284  0.03861723  0.98169751    -0.15800
F1605       F  0.04897737  0.12378199  0.99337889    -0.15800
F1606       F  0.05201382  0.09492583  0.02708728    -0.13500
C1607       C  0.96904620  0.01785821  0.07615003     0.24500
C1608       C  0.97161641  0.02175835  0.09872846    -0.23600
C1609       C  0.99233001  0.02825096  0.10635304     0.19400
C1610       C  0.00976941  0.03103246  0.09178417     0.24500
C1611       C  0.00681075  0.02777738  0.06932732    -0.23500
C1612       C  0.98635856  0.02111407  0.06165739     0.19400
F1613       F  0.98324137  0.01740698  0.04004481    -0.13500
F1614       F  0.94992696  0.01037999  0.06796004    -0.15800
F1615       F  0.02944975  0.03748443  0.09953067    -0.15800
F1616       F  0.99565685  0.03265635  0.12776801    -0.13500
C1617       C  0.08091396  0.96168229  0.02439168     0.24500
C1618       C  0.10354577  0.96455701  0.02734791    -0.23600
C1619       C  0.11128716  0.98567104  0.03224627     0.19400
C1620       C  0.09666118  0.00311272  0.03494447     0.24500
C1621       C  0.07408585  0.99970142  0.03318792    -0.23500
C1622       C  0.06642305  0.97893422  0.02760790     0.19400
F1623       F  0.04475198  0.97543901  0.02483844    -0.13500
F1624       F  0.07263288  0.94225772  0.01786935    -0.15800
F1625       F  0.10449368  0.02319472  0.03989324    -0.15800
F1626       F  0.13287308  0.98941132  0.03514888    -0.13500
C1627       C  0.34022513  0.22033422  0.71993398     0.24500
C1628       C  0.36055639  0.20977760  0.72059778    -0.23600
C1629       C  0.36610342  0.19732129  0.73906584     0.19400
C1630       C  0.35111961  0.19478730  0.75617217     0.24500
C1631       C  0.33065078  0.20494559  0.75509124    -0.23500
C1632       C  0.32546290  0.21799229  0.73707106     0.19400
F1633       F  0.30574669  0.22796858  0.73582943    -0.13500
F1634       F  0.33458973  0.23289795  0.70260658    -0.15800
F1635       F  0.35629108  0.18196508  0.77344789    -0.15800
F1636       F  0.38546504  0.18666137  0.74000062    -0.13500
C1637       C  0.26821997  0.24579861  0.81381517     0.24500
C1638       C  0.28649350  0.23242232  0.81726678    -0.23600
C1639       C  0.29997968  0.23632615  0.83535906     0.19400
C1640       C  0.29506371  0.25319290  0.84997530     0.24500
C1641       C  0.27687457  0.26665714  0.84640942    -0.23500
C1642       C  0.26360519  0.26295004  0.82812203     0.19400
F1643       F  0.24607335  0.27586978  0.82421106    -0.13500
F1644       F  0.25517566  0.24257217  0.79622450    -0.15800
F1645       F  0.30852462  0.25693390  0.86713121    -0.15800
F1646       F  0.31784642  0.22376195  0.83886990    -0.13500
C1647       C  0.26278698  0.14590871  0.78553778     0.24500
C1648       C  0.26294460  0.16672441  0.77612185    -0.23600
C1649       C  0.24614839  0.17279952  0.76188081     0.19400
C1650       C  0.22897543  0.15849238  0.75758821     0.24500
C1651       C  0.22833884  0.13778337  0.76746274    -0.23500
C1652       C  0.24562484  0.13148048  0.78122175     0.19400
F1653       F  0.24541387  0.11183003  0.79135832    -0.13500
F1654       F  0.27898492  0.13979416  0.79930978    -0.15800
F1655       F  0.21300980  0.16488974  0.74366937    -0.15800
F1656       F  0.24628124  0.19277044  0.75235303    -0.13500
C1657       C  0.47993177  0.92299518  0.48229274     0.24500
C1658       C  0.47300150  0.91496653  0.50254618    -0.23600
C1659       C  0.46845821  0.89269821  0.50479082     0.19400
C1660       C  0.47066572  0.87860891  0.48692234     0.24500
C1661       C  0.47786793  0.88652689  0.46653945    -0.23500
C1662       C  0.48256054  0.90895226  0.46453040     0.19400
F1663       F  0.49005483  0.91739721  0.44550659    -0.13500
F1664       F  0.48422874  0.94455229  0.47975867    -0.15800
F1665       F  0.46483370  0.85744287  0.48942836    -0.15800
F1666       F  0.46111722  0.88474894  0.52409777    -0.13500
C1667       C  0.43577374  0.99300435  0.51420693     0.24500
C1668       C  0.43384754  0.97902987  0.53226325    -0.23600
C1669       C  0.41644036  0.98186279  0.54686191     0.19400
C1670       C  0.40119379  0.99853810  0.54348280     0.24500
C1671       C  0.40352425  0.01290616  0.52576916    -0.23500
C1672       C  0.42090538  0.00997293  0.51114965     0.19400
F1673       F  0.42337540  0.02347112  0.49378052    -0.13500
F1674       F  0.45237921  0.99047644  0.49977738    -0.15800
F1675       F  0.38467497  0.00118702  0.55796875    -0.15800
F1676       F  0.41416987  0.96839691  0.56427119    -0.13500
C1677       C  0.51333142  0.94880148  0.60815477     0.24500
C1678       C  0.53387094  0.95627794  0.60103004    -0.23600
C1679       C  0.53655922  0.96146404  0.57878221     0.19400
C1680       C  0.51954540  0.95842665  0.56395459     0.24500
C1681       C  0.49933544  0.95039946  0.57094105    -0.23500
C1682       C  0.49618779  0.94592724  0.59319989     0.19400
F1683       F  0.47672596  0.93820499  0.60032185    -0.13500
F1684       F  0.51005290  0.94346388  0.62937778    -0.15800
F1685       F  0.52272437  0.96357200  0.54264949    -0.15800
F1686       F  0.55558370  0.96990995  0.57131678    -0.13500
C1687       C  0.74237792  0.34711238  0.21318355     0.24500
C1688       C  0.72590909  0.34005265  0.22746817    -0.23600
C1689       C  0.72845006  0.32027319  0.23870447     0.19400
C1690       C  0.74699081  0.30747927  0.23531956     0.24500
C1691       C  0.76294885  0.31408850  0.22029856    -0.23500
C1692       C  0.76067985  0.33405252  0.20942846     0.19400
F1693       F  0.77601284  0.34065375  0.19490822    -0.13500
F1694       F  0.74019040  0.36607699  0.20200972    -0.15800
F1695       F  0.74904834  0.28827061  0.24611440    -0.15800
F1696       F  0.71294325  0.31335396  0.25290273    -0.13500
C1697       C  0.79371416  0.24002813  0.13849368     0.24500
C1698       C  0.78467256  0.21999518  0.14530042    -0.23600
C1699       C  0.77849242  0.21762640  0.16734586     0.19400
C1700       C  0.78227783  0.23426383  0.18230935     0.24500
C1701       C  0.79188987  0.25382375  0.17564929    -0.23500
C1702       C  0.79719889  0.25687459  0.15361048     0.19400
F1703       F  0.80619379  0.27592146  0.14688005    -0.13500
F1704       F  0.79991193  0.24310295  0.11748104    -0.15800
F1705       F  0.77648173  0.23131583  0.20349031    -0.15800
F1706       F  0.76839338  0.19933398  0.17455243    -0.13500
C1707       C  0.86527893  0.27455069  0.25991386     0.24500
C1708       C  0.85728084  0.26437978  0.27891580    -0.23600
C1709       C  0.83512287  0.25844924  0.27983467     0.19400
C1710       C  0.82112989  0.26340247  0.26261253     0.24500
C1711       C  0.82900485  0.27408268  0.24402266    -0.23500
C1712       C  0.85121095  0.27925421  0.24253131     0.19400
F1713       F  0.85907203  0.28952241  0.22457176    -0.13500
F1714       F  0.88640366  0.28091158  0.25853371    -0.15800
F1715       F  0.79978154  0.25775688  0.26403821    -0.15800
F1716       F  0.82695204  0.24766575  0.29734493    -0.13500
C1717       C  0.46770255  0.46151156  0.92865811     0.24500
C1718       C  0.47170715  0.45877452  0.90614973    -0.23600
C1719       C  0.49310876  0.45383470  0.89929403     0.19400
C1720       C  0.50984076  0.45115500  0.91463242     0.24500
C1721       C  0.50540420  0.45300688  0.93700094    -0.23500
C1722       C  0.48430632  0.45837997  0.94386332     0.19400
F1723       F  0.47983585  0.46084027  0.96542111    -0.13500
F1724       F  0.44780465  0.46762821  0.93612324    -0.15800
F1725       F  0.53022386  0.44604005  0.90770919    -0.15800
F1726       F  0.49778230  0.45074808  0.87789144    -0.13500
C1727       C  0.51747394  0.41948060  0.02045787     0.24500
C1728       C  0.53090066  0.41378061  0.00286958    -0.23600
C1729       C  0.53989003  0.39278379  0.00186255     0.19400
C1730       C  0.53585851  0.37775566  0.01861041     0.24500
C1731       C  0.52279178  0.38362314  0.03658529    -0.23500
C1732       C  0.51347107  0.40458341  0.03719494     0.19400
F1733       F  0.50022046  0.41059959  0.05387750    -0.13500
F1734       F  0.50827908  0.43958882  0.02140142    -0.15800
F1735       F  0.54546655  0.35785570  0.01767688    -0.15800
F1736       F  0.55277253  0.38697794  0.98482229    -0.13500
C1737       C  0.57745938  0.51684663  0.99033113     0.24500
C1738       C  0.59936131  0.51502197  0.98356770    -0.23600
C1739       C  0.60647843  0.49516538  0.97441243     0.19400
C1740       C  0.59186000  0.47785558  0.97151291     0.24500
C1741       C  0.56996253  0.48012656  0.97761675    -0.23500
C1742       C  0.56291899  0.49960317  0.98725418     0.19400
F1743       F  0.54184162  0.50192746  0.99360374    -0.13500
F1744       F  0.57006498  0.53524525  0.00014859    -0.15800
F1745       F  0.59889337  0.45909861  0.96211958    -0.15800
F1746       F  0.62728082  0.49276997  0.96731852    -0.13500
C1747       C  0.91982762  0.46007493  0.48099884     0.24500
C1748       C  0.89919442  0.46080812  0.47100156    -0.23600
C1749       C  0.89309087  0.47965425  0.45937875     0.19400
C1750       C  0.90782835  0.49696128  0.45697729     0.24500
C1751       C  0.92869431  0.49562482  0.46622538    -0.23500
C1752       C  0.93443249  0.47729364  0.47855826     0.19400
F1753       F  0.95438433  0.47598836  0.48803720    -0.13500
F1754       F  0.92586047  0.44271457  0.49331814    -0.15800
F1755       F  0.90196720  0.51477978  0.44525223    -0.15800
F1756       F  0.87332901  0.48093396  0.44953435    -0.13500
C1757       C  0.03447773  0.51176844  0.42324400     0.24500
C1758       C  0.03154993  0.51411741  0.40051948    -0.23600
C1759       C  0.01054946  0.51923016  0.39265355     0.19400
C1760       C  0.99314644  0.52232838  0.40718701     0.24500
C1761       C  0.99648580  0.52076300  0.42977747    -0.23500
C1762       C  0.01723371  0.51536036  0.43765029     0.19400
F1763       F  0.02074508  0.51326381  0.45942152    -0.13500
F1764       F  0.05393121  0.50554594  0.43170921    -0.15800
F1765       F  0.97318488  0.52762090  0.39926032    -0.15800
F1766       F  0.00692517  0.52207369  0.37102082    -0.13500
C1767       C  0.98629107  0.56876310  0.52919768     0.24500
C1768       C  0.97648939  0.58951423  0.52901129    -0.23600
C1769       C  0.96272052  0.59519266  0.51153931     0.19400
C1770       C  0.95868631  0.58027579  0.49471594     0.24500
C1771       C  0.96856045  0.55967003  0.49502318    -0.23500
C1772       C  0.98240814  0.55402435  0.51229092     0.19400
F1773       F  0.99207386  0.53411989  0.51278931    -0.13500
F1774       F  0.99994844  0.56284338  0.54557303    -0.15800
F1775       F  0.94508097  0.58585498  0.47818338    -0.15800
F1776       F  0.95253532  0.61482020  0.51114543    -0.13500
loop_ 
_geom_bond_atom_site_label_1 
_geom_bond_atom_site_label_2 
_geom_bond_distance 
_geom_bond_site_symmetry_2 
_ccdc_geom_bond_type 
N1            N2   1.323       .  A
N1            C5   1.349       .  A
N1           Cu9   2.090       .  S
N2            C3   1.341       .  A
N2           Cu8   2.063       .  S
C3            C4   1.381       .  A
C3            H6   1.082       .  S
C4            C5   1.388       .  A
C4         C1768   1.480       .  S
C5            H7   1.082       .  S
Cu8          N11   2.062       .  S
Cu9          N19   2.090       .  S
Cu10         N12   2.077       .  S
Cu10         N18   2.078       .  S
N11          N12   1.321       .  A
N11          C15   1.345       .  A
N12          C13   1.345       .  A
C13          C14   1.385       .  A
C13          H16   1.082       .  S
C14          C15   1.382       .  A
C14         C581   1.470       .  S
C15          H17   1.082       .  S
N18          N19   1.324       .  A
N18          C22   1.346       .  A
N19          C20   1.349       .  A
C20          C21   1.386   1_655  A
C20          H23   1.082   1_655  S
C21          C22   1.383   1_455  A
C21        C1284   1.477       .  S
C22          H24   1.082       .  S
N25          N26   1.320       .  A
N25          C29   1.351       .  A
N25         Cu33   2.093       .  S
N26          C27   1.339       .  A
N26         Cu32   2.058       .  S
C27          C28   1.384       .  A
C27          H30   1.081       .  S
C28          C29   1.394       .  A
C28        C1758   1.491       .  S
C29          H31   1.081       .  S
Cu32         N35   2.057       .  S
Cu33         N43   2.095       .  S
Cu34         N36   2.094       .  S
Cu34         N42   2.096       .  S
N35          N36   1.321       .  A
N35          C39   1.344       .  A
N36          C37   1.349       .  A
C37          C38   1.389       .  A
C37          H40   1.082       .  S
C38          C39   1.380       .  A
C38         C548   1.474       .  S
C39          H41   1.082       .  S
N42          N43   1.326       .  A
N42          C46   1.349       .  A
N43          C44   1.348       .  A
C44          C45   1.385       .  A
C44          H47   1.082       .  S
C45          C46   1.385       .  A
C45        C1098   1.479       .  S
C46          H48   1.082       .  S
N49          N50   1.322       .  A
N49          C53   1.349       .  A
N49         Cu57   2.082       .  S
N50          C51   1.340       .  A
N50         Cu56   2.065       .  S
C51          C52   1.382       .  A
C51          H54   1.082       .  S
C52          C53   1.388       .  A
C52        C1748   1.481       .  S
C53          H55   1.082       .  S
Cu56         N59   2.064       .  S
Cu57         N67   2.082       .  S
Cu58         N60   2.075       .  S
Cu58         N66   2.076       .  S
N59          N60   1.321       .  A
N59          C63   1.345       .  A
N60          C61   1.345       .  A
C61          C62   1.384       .  A
C61          H64   1.082       .  S
C62          C63   1.382       .  A
C62         C176   1.469       .  S
C63          H65   1.082       .  S
N66          N67   1.323       .  A
N66          C70   1.345       .  A
N67          C68   1.347       .  A
C68          C69   1.384       .  A
C68          H71   1.082       .  S
C69          C70   1.383       .  A
C69         C831   1.473       .  S
C70          H72   1.082       .  S
C73          C74   1.401       .  A
C73          C78   1.401       .  A
C73        C1771   1.471       .  S
C74          C75   1.402       .  A
C74          H79   1.084       .  S
C75          C76   1.404       .  A
C75        C1751   1.472       .  S
C76          C77   1.403       .  A
C76          H80   1.084       .  S
C77          C78   1.403       .  A
C77        C1761   1.479       .  S
C78          H81   1.084       .  S
N82          N83   1.322       .  A
N82          C86   1.349       .  A
N82         Cu90   2.092       .  S
N83          C84   1.342       .  A
N83         Cu89   2.066       .  S
C84          C85   1.384       .  A
C84          H87   1.081       .  S
C85          C86   1.391       .  A
C85        C1738   1.488       .  S
C86          H88   1.081       .  S
Cu89         N92   2.064       .  S
Cu90        N100   2.093       .  S
Cu91         N93   2.096       .  S
Cu91         N99   2.096       .  S
N92          N93   1.321       .  A
N92          C96   1.346       .  A
N93          C94   1.348       .  A
C94          C95   1.389       .  A
C94          H97   1.082       .  S
C95          C96   1.382       .  A
C95         C629   1.477       .  S
C96          H98   1.082       .  S
N99         N100   1.325       .  A
N99         C103   1.348       .  A
N100        C101   1.349   1_556  A
C101        C102   1.386       .  A
C101        H104   1.082       .  S
C102        C103   1.386   1_554  A
C102       C1122   1.482       .  S
C103        H105   1.082       .  S
N106        N107   1.322       .  A
N106        C110   1.348       .  A
N106       Cu114   2.087       .  S
N107        C108   1.342       .  A
N107       Cu113   2.065       .  S
C108        C109   1.382       .  A
C108        H111   1.082       .  S
C109        C110   1.388       .  A
C109       C1731   1.482       .  S
C110        H112   1.082       .  S
Cu113       N116   2.064       .  S
Cu114       N124   2.088       .  S
Cu115       N117   2.081       .  S
Cu115       N123   2.081       .  S
N116        N117   1.321       .  A
N116        C120   1.345       .  A
N117        C118   1.346       .  A
C118        C119   1.386       .  A
C118        H121   1.082       .  S
C119        C120   1.381       .  A
C119        C224   1.471       .  S
C120        H122   1.082       .  S
N123        N124   1.324       .  A
N123        C127   1.346       .  A
N124        C125   1.348       .  A
C125        C126   1.385       .  A
C125        H128   1.082       .  S
C126        C127   1.383       .  A
C126        C993   1.475       .  S
C127        H129   1.082       .  S
N130        N131   1.320       .  A
N130        C134   1.348       .  A
N130       Cu138   2.083       .  S
N131        C132   1.339       .  A
N131       Cu137   2.058       .  S
C132        C133   1.385       .  A
C132        H135   1.081       .  S
C133        C134   1.392       .  A
C133       C1718   1.489       .  S
C134        H136   1.081       .  S
Cu137       N140   2.057       .  S
Cu138       N148   2.084       .  S
Cu139       N141   2.107       .  S
Cu139       N147   2.109       .  S
N140        N141   1.321       .  A
N140        C144   1.344       .  A
N141        C142   1.351       .  A
C142        C143   1.391       .  A
C142        H145   1.082       .  S
C143        C144   1.380       .  A
C143        C362   1.478       .  S
C144        H146   1.082       .  S
N147        N148   1.326       .  A
N147        C151   1.350       .  A
N148        C149   1.347       .  A
C149        C150   1.383       .  A
C149        H152   1.082       .  S
C150        C151   1.388       .  A
C150        C879   1.481       .  S
C151        H153   1.082       .  S
C154        C155   1.403       .  A
C154        C159   1.403       .  A
C154       C1741   1.475       .  S
C155        C156   1.402       .  A
C155        H160   1.084       .  S
C156        C157   1.403       .  A
C156       C1721   1.475       .  S
C157        C158   1.400       .  A
C157        H161   1.084       .  S
C158        C159   1.403       .  A
C158       C1728   1.473   1_556  S
C159        H162   1.084   1_556  S
N163        N164   1.321       .  A
N163        C167   1.348       .  A
N163       Cu171   2.086       .  S
N164        C165   1.340       .  A
N164       Cu170   2.061       .  S
C165        C166   1.383       .  A
C165        H168   1.082       .  S
C166        C167   1.389       .  A
C166       C1708   1.483       .  S
C167        H169   1.081       .  S
Cu170       N173   2.061       .  S
Cu171       N181   2.088       .  S
Cu172       N174   2.080       .  S
Cu172       N180   2.081       .  S
N173        N174   1.321       .  A
N173        C177   1.343       .  A
N174        C175   1.347       .  A
C175        C176   1.385       .  A
C175        H178   1.082       .  S
C176        C177   1.381       .  A
C177        H179   1.082       .  S
N180        N181   1.324       .  A
N180        C184   1.347       .  A
N181        C182   1.347       .  A
C182        C183   1.385       .  A
C182        H185   1.082       .  S
C183        C184   1.383       .  A
C183       C1203   1.476   1_655  S
C184        H186   1.082       .  S
N187        N188   1.321       .  A
N187        C191   1.351       .  A
N187       Cu195   2.093       .  S
N188        C189   1.338       .  A
N188       Cu194   2.057       .  S
C189        C190   1.383       .  A
C189        H192   1.081       .  S
C190        C191   1.393       .  A
C190       C1698   1.489       .  S
C191        H193   1.081       .  S
Cu194       N197   2.055       .  S
Cu195       N205   2.095       .  S
Cu196       N198   2.091       .  S
Cu196       N204   2.093       .  S
N197        N198   1.320       .  A
N197        C201   1.344       .  A
N198        C199   1.347       .  A
C199        C200   1.389       .  A
C199        H202   1.082       .  S
C200        C201   1.381       .  A
C200        C443   1.474       .  S
C201        H203   1.082       .  S
N204        N205   1.325       .  A
N204        C208   1.348       .  A
N205        C206   1.349       .  A
C206        C207   1.386       .  A
C206        H209   1.082       .  S
C207        C208   1.385       .  A
C207        C750   1.481   1_554  S
C208        H210   1.082       .  S
N211        N212   1.322       .  A
N211        C215   1.345       .  A
N211       Cu219   2.070       .  S
N212        C213   1.344       .  A
N212       Cu218   2.068       .  S
C213        C214   1.382       .  A
C213        H216   1.082       .  S
C214        C215   1.382       .  A
C214       C1688   1.472       .  S
C215        H217   1.082       .  S
Cu218       N221   2.068       .  S
Cu219       N229   2.070       .  S
Cu220       N222   2.089       .  S
Cu220       N228   2.089       .  S
N221        N222   1.323       .  A
N221        C225   1.344       .  A
N222        C223   1.348       .  A
C223        C224   1.386       .  A
C223        H226   1.082       .  S
C224        C225   1.381       .  A
C225        H227   1.082       .  S
N228        N229   1.323       .  A
N228        C232   1.347       .  A
N229        C230   1.345       .  A
C230        C231   1.381       .  A
C230        H233   1.082       .  S
C231        C232   1.386       .  A
C231        C693   1.474       .  S
C232        H234   1.082       .  S
C235        C236   1.402       .  A
C235        C240   1.400       .  A
C235       C1691   1.471       .  S
C236        C237   1.401       .  A
C236        H241   1.084       .  S
C237        C238   1.403       .  A
C237       C1701   1.472       .  S
C238        C239   1.401       .  A
C238        H242   1.084       .  S
C239        C240   1.402       .  A
C239       C1711   1.472       .  S
C240        H243   1.084       .  S
N244        N245   1.321       .  A
N244        C248   1.352       .  A
N244       Cu252   2.102       .  S
N245        C246   1.341       .  A
N245       Cu251   2.065       .  S
C246        C247   1.384       .  A
C246        H249   1.081       .  S
C247        C248   1.394       .  A
C247       C1678   1.492       .  S
C248        H250   1.081       .  S
Cu251       N254   2.064       .  S
Cu252       N262   2.103       .  S
Cu253       N255   2.092       .  S
Cu253       N261   2.094       .  S
N254        N255   1.321       .  A
N254        C258   1.344       .  A
N255        C256   1.349       .  A
C256        C257   1.388       .  A
C256        H259   1.082       .  S
C257        C258   1.381       .  A
C257        C605   1.474       .  S
C258        H260   1.082       .  S
N261        N262   1.326       .  A
N261        C265   1.348       .  A
N262        C263   1.350       .  A
C263        C264   1.387       .  A
C263        H266   1.082       .  S
C264        C265   1.385       .  A
C264       C1041   1.482       .  S
C265        H267   1.082       .  S
N268        N269   1.324       .  A
N268        C272   1.348       .  A
N268       Cu276   2.088       .  S
N269        C270   1.343       .  A
N269       Cu275   2.070       .  S
C270        C271   1.380       .  A
C270        H273   1.082       .  S
C271        C272   1.385       .  A
C271       C1671   1.476       .  S
C272        H274   1.082       .  S
Cu275       N278   2.069       .  S
Cu276       N286   2.088       .  S
Cu277       N279   2.082       .  S
Cu277       N285   2.082       .  S
N278        N279   1.321       .  A
N278        C282   1.347       .  A
N279        C280   1.345       .  A
C280        C281   1.385       .  A
C280        H283   1.082       .  S
C281        C282   1.384       .  A
C281        C386   1.474       .  S
C282        H284   1.082       .  S
N285        N286   1.323       .  A
N285        C289   1.346       .  A
N286        C287   1.349       .  A
C287        C288   1.387       .  A
C287        H290   1.082       .  S
C288        C289   1.384       .  A
C288       C1236   1.478       .  S
C289        H291   1.082       .  S
N292        N293   1.321       .  A
N292        C296   1.347       .  A
N292       Cu300   2.091       .  S
N293        C294   1.343       .  A
N293       Cu299   2.064       .  S
C294        C295   1.386       .  A
C294        H297   1.081       .  S
C295        C296   1.392       .  A
C295       C1661   1.491       .  S
C296        H298   1.081       .  S
Cu299       N302   2.061       .  S
Cu300       N310   2.092       .  S
Cu301       N303   2.088       .  S
Cu301       N309   2.090       .  S
N302        N303   1.322       .  A
N302        C306   1.344       .  A
N303        C304   1.348       .  A
C304        C305   1.387       .  A
C304        H307   1.082       .  S
C305        C306   1.380       .  A
C305        C500   1.471       .  S
C306        H308   1.082       .  S
N309        N310   1.324       .  A
N309        C313   1.348       .  A
N310        C311   1.349       .  A
C311        C312   1.386       .  A
C311        H314   1.082       .  S
C312        C313   1.386       .  A
C312        C855   1.481       .  S
C313        H315   1.082       .  S
C316        C317   1.406       .  A
C316        C321   1.401       .  A
C316       C1668   1.478       .  S
C317        C318   1.406       .  A
C317        H322   1.084       .  S
C318        C319   1.408       .  A
C318       C1681   1.482       .  S
C319        C320   1.404       .  A
C319        H323   1.084       .  S
C320        C321   1.399       .  A
C320       C1658   1.477       .  S
C321        H324   1.085       .  S
N325        N326   1.322       .  A
N325        C329   1.348       .  A
N325       Cu333   2.086       .  S
N326        C327   1.342       .  A
N326       Cu332   2.067       .  S
C327        C328   1.383       .  A
C327        H330   1.082       .  S
C328        C329   1.388       .  A
C328       C1651   1.483       .  S
C329        H331   1.082       .  S
Cu332       N335   2.066       .  S
Cu333       N343   2.086       .  S
Cu334       N336   2.085       .  S
Cu334       N342   2.085       .  S
N335        N336   1.322       .  A
N335        C339   1.346       .  A
N336        C337   1.346       .  A
C337        C338   1.386       .  A
C337        H340   1.082       .  S
C338        C339   1.382       .  A
C338        C467   1.473       .  S
C339        H341   1.082       .  S
N342        N343   1.323       .  A
N342        C346   1.347       .  A
N343        C344   1.348       .  A
C344        C345   1.385       .  A
C344        H347   1.082       .  S
C345        C346   1.385       .  A
C345        C912   1.477   1_545  S
C346        H348   1.082       .  S
N349        N350   1.323       .  A
N349        C353   1.348       .  A
N349       Cu357   2.092       .  S
N350        C351   1.344       .  A
N350       Cu356   2.067       .  S
C351        C352   1.380       .  A
C351        H354   1.082       .  S
C352        C353   1.386       .  A
C352       C1641   1.476       .  S
C353        H355   1.082       .  S
Cu356       N359   2.066       .  S
Cu357       N367   2.093       .  S
Cu358       N360   2.098       .  S
Cu358       N366   2.098       .  S
N359        N360   1.322       .  A
N359        C363   1.346       .  A
N360        C361   1.349       .  A
C361        C362   1.390       .  A
C361        H364   1.082       .  S
C362        C363   1.381       .  A
C363        H365   1.082       .  S
N366        N367   1.324       .  A
N366        C370   1.348       .  A
N367        C368   1.350       .  A
C368        C369   1.386       .  A
C368        H371   1.082       .  S
C369        C370   1.386       .  A
C369       C1179   1.482   1_556  S
C370        H372   1.082       .  S
N373        N374   1.321       .  A
N373        C377   1.349       .  A
N373       Cu381   2.082       .  S
N374        C375   1.341       .  A
N374       Cu380   2.062       .  S
C375        C376   1.381       .  A
C375        H378   1.082       .  S
C376        C377   1.387       .  A
C376       C1628   1.478       .  S
C377        H379   1.082       .  S
Cu380       N383   2.061       .  S
Cu381       N391   2.083       .  S
Cu382       N384   2.090       .  S
Cu382       N390   2.091       .  S
N383        N384   1.321       .  A
N383        C387   1.343       .  A
N384        C385   1.350       .  A
C385        C386   1.388       .  A
C385        H388   1.082       .  S
C386        C387   1.380       .  A
C387        H389   1.082       .  S
N390        N391   1.325       .  A
N390        C394   1.346       .  A
N391        C392   1.347       .  A
C392        C393   1.383       .  A
C392        H395   1.082       .  S
C393        C394   1.385       .  A
C393        C774   1.476       .  S
C394        H396   1.082       .  S
C397        C398   1.404       .  A
C397        C402   1.405       .  A
C397       C1638   1.479       .  S
C398        C399   1.402       .  A
C398        H403   1.084       .  S
C399        C400   1.400       .  A
C399       C1648   1.473       .  S
C400        C401   1.402       .  A
C400        H404   1.084       .  S
C401        C402   1.403       .  A
C401       C1631   1.473       .  S
C402        H405   1.084       .  S
N406        N407   1.321       .  A
N406        C410   1.351       .  A
N406       Cu414   2.096       .  S
N407        C408   1.340       .  A
N407       Cu413   2.067       .  S
C408        C409   1.386       .  A
C408        H411   1.081       .  S
C409        C410   1.395       .  A
C409       C1618   1.495       .  S
C410        H412   1.081       .  S
Cu413       N416   2.065       .  S
Cu414       N424   2.097       .  S
Cu415       N417   2.090       .  S
Cu415       N423   2.092       .  S
N416        N417   1.321       .  A
N416        C420   1.345       .  A
N417        C418   1.348       .  A
C418        C419   1.388       .  A
C418        H421   1.082       .  S
C419        C420   1.381       .  A
C419        C524   1.474       .  S
C420        H422   1.082       .  S
N423        N424   1.325       .  A
N423        C427   1.348       .  A
N424        C425   1.349       .  A
C425        C426   1.386       .  A
C425        H428   1.082       .  S
C426        C427   1.384       .  A
C426       C1017   1.480   1_554  S
C427        H429   1.082       .  S
N430        N431   1.320       .  A
N430        C434   1.351       .  A
N430       Cu438   2.099       .  S
N431        C432   1.341       .  A
N431       Cu437   2.061       .  S
C432        C433   1.386       .  A
C432        H435   1.081       .  S
C433        C434   1.396       .  A
C433       C1608   1.496       .  S
C434        H436   1.081       .  S
Cu437       N440   2.059       .  S
Cu438       N448   2.100       .  S
Cu439       N441   2.093       .  S
Cu439       N447   2.095       .  S
N440        N441   1.321       .  A
N440        C444   1.343       .  A
N441        C442   1.349       .  A
C442        C443   1.389       .  A
C442        H445   1.082       .  S
C443        C444   1.380       .  A
C444        H446   1.082       .  S
N447        N448   1.326       .  A
N447        C451   1.350       .  A
N448        C449   1.348   1_545  A
C449        C450   1.386       .  A
C449        H452   1.082       .  S
C450        C451   1.385   1_565  A
C450       C1260   1.481       .  S
C451        H453   1.082       .  S
N454        N455   1.321       .  A
N454        C458   1.349       .  A
N454       Cu462   2.086       .  S
N455        C456   1.341       .  A
N455       Cu461   2.065       .  S
C456        C457   1.384       .  A
C456        H459   1.082       .  S
C457        C458   1.391       .  A
C457       C1601   1.487       .  S
C458        H460   1.082       .  S
Cu461       N464   2.064       .  S
Cu462       N472   2.086       .  S
Cu463       N465   2.087       .  S
Cu463       N471   2.088       .  S
N464        N465   1.321       .  A
N464        C468   1.344       .  A
N465        C466   1.349       .  A
C466        C467   1.387       .  A
C466        H469   1.082       .  S
C467        C468   1.381       .  A
C468        H470   1.082       .  S
N471        N472   1.325       .  A
N471        C475   1.347       .  A
N472        C473   1.347       .  A
C473        C474   1.383       .  A
C473        H476   1.082       .  S
C474        C475   1.384       .  A
C474       C1074   1.475       .  S
C475        H477   1.082       .  S
C478        C479   1.404       .  A
C478        C483   1.405       .  A
C478       C1611   1.482       .  S
C479        C480   1.407       .  A
C479        H484   1.084       .  S
C480        C481   1.403       .  A
C480       C1621   1.483   1_545  S
C481        C482   1.404       .  A
C481        H485   1.084       .  S
C482        C483   1.403       .  A
C482       C1598   1.477       .  S
C483        H486   1.084       .  S
N487        N488   1.322       .  A
N487        C491   1.348       .  A
N487       Cu495   2.084       .  S
N488        C489   1.342       .  A
N488       Cu494   2.066       .  S
C489        C490   1.381       .  A
C489        H492   1.082       .  S
C490        C491   1.387       .  A
C490       C1588   1.479       .  S
C491        H493   1.082       .  S
Cu494       N497   2.065       .  S
Cu495       N505   2.084       .  S
Cu496       N498   2.078       .  S
Cu496       N504   2.079       .  S
N497        N498   1.321       .  A
N497        C501   1.345       .  A
N498        C499   1.346       .  A
C499        C500   1.386       .  A
C499        H502   1.082       .  S
C500        C501   1.382       .  A
C501        H503   1.082       .  S
N504        N505   1.324       .  A
N504        C508   1.345       .  A
N505        C506   1.347       .  A
C506        C507   1.384       .  A
C506        H509   1.082       .  S
C507        C508   1.383       .  A
C507       C1155   1.474       .  S
C508        H510   1.082       .  S
N511        N512   1.322       .  A
N511        C515   1.351       .  A
N511       Cu519   2.087       .  S
N512        C513   1.340       .  A
N512       Cu518   2.063       .  S
C513        C514   1.381       .  A
C513        H516   1.082       .  S
C514        C515   1.388       .  A
C514       C1578   1.480       .  S
C515        H517   1.082       .  S
Cu518       N521   2.062       .  S
Cu519       N529   2.088       .  S
Cu520       N522   2.094       .  S
Cu520       N528   2.096       .  S
N521        N522   1.321       .  A
N521        C525   1.344       .  A
N522        C523   1.349       .  A
C523        C524   1.388       .  A
C523        H526   1.082       .  S
C524        C525   1.380       .  A
C525        H527   1.082       .  S
N528        N529   1.325       .  A
N528        C532   1.349       .  A
N529        C530   1.347       .  A
C530        C531   1.384       .  A
C530        H533   1.082       .  S
C531        C532   1.387       .  A
C531        C669   1.480   1_455  S
C532        H534   1.082       .  S
N535        N536   1.322       .  A
N535        C539   1.348       .  A
N535       Cu543   2.080       .  S
N536        C537   1.343       .  A
N536       Cu542   2.068       .  S
C537        C538   1.382       .  A
C537        H540   1.082       .  S
C538        C539   1.386       .  A
C538       C1568   1.478       .  S
C539        H541   1.082       .  S
Cu542       N545   2.067       .  S
Cu543       N553   2.081       .  S
Cu544       N546   2.094       .  S
Cu544       N552   2.095       .  S
N545        N546   1.322       .  A
N545        C549   1.344       .  A
N546        C547   1.349       .  A
C547        C548   1.389       .  A
C547        H550   1.082       .  S
C548        C549   1.380       .  A
C549        H551   1.082       .  S
N552        N553   1.324       .  A
N552        C556   1.349       .  A
N553        C554   1.346       .  A
C554        C555   1.383       .  A
C554        H557   1.082       .  S
C555        C556   1.387       .  A
C555        C936   1.478       .  S
C556        H558   1.082       .  S
C559        C560   1.403       .  A
C559        C564   1.405       .  A
C559       C1571   1.476       .  S
C560        C561   1.401       .  A
C560        H565   1.084       .  S
C561        C562   1.401       .  A
C561       C1591   1.473       .  S
C562        C563   1.403       .  A
C562        H566   1.084       .  S
C563        C564   1.404       .  A
C563       C1581   1.475       .  S
C564        H567   1.084       .  S
N568        N569   1.321       .  A
N568        C572   1.348       .  A
N568       Cu576   2.089       .  S
N569        C570   1.342       .  A
N569       Cu575   2.066       .  S
C570        C571   1.385       .  A
C570        H573   1.081       .  S
C571        C572   1.391       .  A
C571       C1558   1.488       .  S
C572        H574   1.081       .  S
Cu575       N578   2.064       .  S
Cu576       N586   2.089       .  S
Cu577       N579   2.076       .  S
Cu577       N585   2.077       .  S
N578        N579   1.321       .  A
N578        C582   1.343       .  A
N579        C580   1.347       .  A
C580        C581   1.385       .  A
C580        H583   1.082       .  S
C581        C582   1.381       .  A
C582        H584   1.082       .  S
N585        N586   1.324       .  A
N585        C589   1.345       .  A
N586        C587   1.348       .  A
C587        C588   1.385       .  A
C587        H590   1.082       .  S
C588        C589   1.381       .  A
C588        C798   1.473       .  S
C589        H591   1.082       .  S
N592        N593   1.320       .  A
N592        C596   1.350       .  A
N592       Cu600   2.104       .  S
N593        C594   1.340       .  A
N593       Cu599   2.067       .  S
C594        C595   1.391       .  A
C594        H597   1.077       .  S
C595        C596   1.401       .  A
C595       C1548   1.508       .  S
C596        H598   1.079       .  S
Cu599       N602   2.066       .  S
Cu600       N610   2.105       .  S
Cu601       N603   2.083       .  S
Cu601       N609   2.084       .  S
N602        N603   1.321       .  A
N602        C606   1.346       .  A
N603        C604   1.346       .  A
C604        C605   1.387       .  A
C604        H607   1.082       .  S
C605        C606   1.383       .  A
C606        H608   1.082       .  S
N609        N610   1.325       .  A
N609        C613   1.347       .  A
N610        C611   1.351       .  A
C611        C612   1.389       .  A
C611        H614   1.082       .  S
C612        C613   1.383       .  A
C612        C717   1.482       .  S
C613        H615   1.082       .  S
N616        N617   1.319       .  A
N616        C620   1.350       .  A
N616       Cu624   2.086       .  S
N617        C618   1.339       .  A
N617       Cu623   2.057       .  S
C618        C619   1.385       .  A
C618        H621   1.081       .  S
C619        C620   1.394       .  A
C619       C1538   1.492       .  S
C620        H622   1.081       .  S
Cu623       N626   2.055       .  S
Cu624       N634   2.088       .  S
Cu625       N627   2.102       .  S
Cu625       N633   2.104       .  S
N626        N627   1.321       .  A
N626        C630   1.343       .  A
N627        C628   1.351       .  A
C628        C629   1.391       .  A
C628        H631   1.082       .  S
C629        C630   1.379       .  A
C630        H632   1.082       .  S
N633        N634   1.326       .  A
N633        C637   1.349       .  A
N634        C635   1.348       .  A
C635        C636   1.383       .  A
C635        H638   1.082       .  S
C636        C637   1.387       .  A
C636        C960   1.480       .  S
C637        H639   1.082       .  S
C640        C641   1.406       .  A
C640        C645   1.404       .  A
C640       C1541   1.482       .  S
C641        C642   1.401       .  A
C641        H646   1.084       .  S
C642        C643   1.403       .  A
C642       C1561   1.477       .  S
C643        C644   1.405       .  A
C643        H647   1.084       .  S
C644        C645   1.408       .  A
C644       C1551   1.487       .  S
C645        H648   1.084       .  S
N649        N650   1.321       .  A
N649        C653   1.350       .  A
N649       Cu657   2.095       .  S
N650        C651   1.341       .  A
N650       Cu656   2.069       .  S
C651        C652   1.388       .  A
C651        H654   1.080       .  S
C652        C653   1.395       .  A
C652       C1528   1.498       .  S
C653        H655   1.081       .  S
Cu656       N659   2.068       .  S
Cu657       N667   2.096       .  S
Cu658       N660   2.085       .  S
Cu658       N666   2.085       .  S
N659        N660   1.321       .  A
N659        C663   1.345       .  A
N660        C661   1.347       .  A
C661        C662   1.388       .  A
C661        H664   1.082       .  S
C662        C663   1.382       .  A
C662       C1115   1.475       .  S
C663        H665   1.082       .  S
N666        N667   1.324       .  A
N666        C670   1.347       .  A
N667        C668   1.349       .  A
C668        C669   1.387       .  A
C668        H671   1.082       .  S
C669        C670   1.384       .  A
C670        H672   1.082       .  S
N673        N674   1.320       .  A
N673        C677   1.352       .  A
N673       Cu681   2.095       .  S
N674        C675   1.338       .  A
N674       Cu680   2.054       .  S
C675        C676   1.383       .  A
C675        H678   1.081       .  S
C676        C677   1.395       .  A
C676       C1518   1.491       .  S
C677        H679   1.081       .  S
Cu680       N683   2.053       .  S
Cu681       N691   2.098       .  S
Cu682       N684   2.083       .  S
Cu682       N690   2.085       .  S
N683        N684   1.319       .  A
N683        C687   1.342       .  A
N684        C685   1.349       .  A
C685        C686   1.389       .  A
C685        H688   1.082       .  S
C686        C687   1.380       .  A
C686        C848   1.472       .  S
C687        H689   1.082       .  S
N690        N691   1.326       .  A
N690        C694   1.346       .  A
N691        C692   1.348       .  A
C692        C693   1.385       .  A
C692        H695   1.082       .  S
C693        C694   1.380       .  A
C694        H696   1.082       .  S
N697        N698   1.321       .  A
N697        C701   1.352       .  A
N697       Cu705   2.094       .  S
N698        C699   1.338       .  A
N698       Cu704   2.053       .  S
C699        C700   1.380       .  A
C699        H702   1.082       .  S
C700        C701   1.392       .  A
C700       C1508   1.483       .  S
C701        H703   1.082       .  S
Cu704       N707   2.052       .  S
Cu705       N715   2.096       .  S
Cu706       N708   2.104       .  S
Cu706       N714   2.106       .  S
N707        N708   1.321       .  A
N707        C711   1.344       .  A
N708        C709   1.350       .  A
C709        C710   1.392       .  A
C709        H712   1.082       .  S
C710        C711   1.379       .  A
C710       C1253   1.477       .  S
C711        H713   1.082       .  S
N714        N715   1.327       .  A
N714        C718   1.349       .  A
N715        C716   1.349       .  A
C716        C717   1.384       .  A
C716        H719   1.082       .  S
C717        C718   1.387       .  A
C718        H720   1.082       .  S
C721        C722   1.402       .  A
C721        C726   1.404       .  A
C721       C1521   1.481       .  S
C722        C723   1.398       .  A
C722        H727   1.084       .  S
C723        C724   1.405       .  A
C723       C1511   1.477       .  S
C724        C725   1.411       .  A
C724        H728   1.083       .  S
C725        C726   1.412       .  A
C725       C1531   1.499       .  S
C726        H729   1.083       .  S
N730        N731   1.322       .  A
N730        C734   1.349       .  A
N730       Cu738   2.087       .  S
N731        C732   1.340       .  A
N731       Cu737   2.066       .  S
C732        C733   1.383       .  A
C732        H735   1.082       .  S
C733        C734   1.390       .  A
C733       C1498   1.485       .  S
C734        H736   1.081       .  S
Cu737       N740   2.065       .  S
Cu738       N748   2.088       .  S
Cu739       N741   2.097       .  S
Cu739       N747   2.097       .  S
N740        N741   1.322       .  A
N740        C744   1.346       .  A
N741        C742   1.348       .  A
C742        C743   1.389       .  A
C742        H745   1.082       .  S
C743        C744   1.382       .  A
C743       C1034   1.477       .  S
C744        H746   1.082       .  S
N747        N748   1.325       .  A
N747        C751   1.348       .  A
N748        C749   1.348       .  A
C749        C750   1.385       .  A
C749        H752   1.082       .  S
C750        C751   1.386       .  A
C751        H753   1.082       .  S
N754        N755   1.323       .  A
N754        C758   1.349       .  A
N754       Cu762   2.093       .  S
N755        C756   1.343       .  A
N755       Cu761   2.071       .  S
C756        C757   1.383       .  A
C756        H759   1.082       .  S
C757        C758   1.389       .  A
C757       C1488   1.485       .  S
C758        H760   1.082       .  S
Cu761       N764   2.071       .  S
Cu762       N772   2.093       .  S
Cu763       N765   2.075       .  S
Cu763       N771   2.076       .  S
N764        N765   1.321       .  A
N764        C768   1.345       .  A
N765        C766   1.347       .  A
C766        C767   1.385       .  A
C766        H769   1.082       .  S
C767        C768   1.384       .  A
C767        C824   1.473       .  S
C768        H770   1.082       .  S
N771        N772   1.324       .  A
N771        C775   1.344       .  A
N772        C773   1.349       .  A
C773        C774   1.387       .  A
C773        H776   1.082       .  S
C774        C775   1.381       .  A
C775        H777   1.082       .  S
N778        N779   1.321       .  A
N778        C782   1.347       .  A
N778       Cu786   2.078       .  S
N779        C780   1.342       .  A
N779       Cu785   2.068       .  S
C780        C781   1.385       .  A
C780        H783   1.082       .  S
C781        C782   1.388       .  A
C781       C1478   1.484       .  S
C782        H784   1.081       .  S
Cu785       N788   2.067       .  S
Cu786       N796   2.079       .  S
Cu787       N789   2.084       .  S
Cu787       N795   2.085       .  S
N788        N789   1.322       .  A
N788        C792   1.345       .  A
N789        C790   1.347       .  A
C790        C791   1.386       .  A
C790        H793   1.082       .  S
C791        C792   1.382       .  A
C791       C1067   1.472       .  S
C792        H794   1.082       .  S
N795        N796   1.324       .  A
N795        C799   1.346       .  A
N796        C797   1.347       .  A
C797        C798   1.383       .  A
C797        H800   1.082       .  S
C798        C799   1.384       .  A
C799        H801   1.082       .  S
C802        C803   1.404       .  A
C802        C807   1.404       .  A
C802       C1481   1.474       .  S
C803        C804   1.401       .  A
C803        H808   1.084       .  S
C804        C805   1.402       .  A
C804       C1501   1.473       .  S
C805        C806   1.401       .  A
C805        H809   1.084       .  S
C806        C807   1.404       .  A
C806       C1491   1.475       .  S
C807        H810   1.084       .  S
N811        N812   1.321       .  A
N811        C815   1.346       .  A
N811       Cu819   2.077       .  S
N812        C813   1.343       .  A
N812       Cu818   2.078       .  S
C813        C814   1.390       .  A
C813        H816   1.080       .  S
C814        C815   1.390       .  A
C814       C1468   1.493       .  S
C815        H817   1.081       .  S
Cu818       N821   2.077       .  S
Cu819       N829   2.077       .  S
Cu820       N822   2.076       .  S
Cu820       N828   2.076       .  S
N821        N822   1.322       .  A
N821        C825   1.347       .  A
N822        C823   1.345       .  A
C823        C824   1.383       .  A
C823        H826   1.082       .  S
C824        C825   1.384       .  A
C825        H827   1.082       .  S
N828        N829   1.322       .  A
N828        C832   1.345       .  A
N829        C830   1.346       .  A
C830        C831   1.384       .  A
C830        H833   1.082       .  S
C831        C832   1.384       .  A
C832        H834   1.082       .  S
N835        N836   1.322       .  A
N835        C839   1.350       .  A
N835       Cu843   2.097       .  S
N836        C837   1.341       .  A
N836       Cu842   2.062       .  S
C837        C838   1.384       .  A
C837        H840   1.081       .  S
C838        C839   1.393       .  A
C838       C1461   1.492       .  S
C839        H841   1.081       .  S
Cu842       N845   2.059       .  S
Cu843       N853   2.097       .  S
Cu844       N846   2.087       .  S
Cu844       N852   2.088       .  S
N845        N846   1.321       .  A
N845        C849   1.346       .  A
N846        C847   1.346       .  A
C847        C848   1.386       .  A
C847        H850   1.082       .  S
C848        C849   1.381       .  A
C849        H851   1.082       .  S
N852        N853   1.324       .  A
N852        C856   1.347       .  A
N853        C854   1.350       .  A
C854        C855   1.387       .  A
C854        H857   1.082       .  S
C855        C856   1.385       .  A
C856        H858   1.082       .  S
N859        N860   1.323       .  A
N859        C863   1.353       .  A
N859       Cu867   2.100       .  S
N860        C861   1.340       .  A
N860       Cu866   2.063       .  S
C861        C862   1.380       .  A
C861        H864   1.082       .  S
C862        C863   1.391       .  A
C862       C1448   1.482       .  S
C863        H865   1.082       .  S
Cu866       N869   2.062       .  S
Cu867       N877   2.102       .  S
Cu868       N870   2.086       .  S
Cu868       N876   2.087       .  S
N869        N870   1.321       .  A
N869        C873   1.345       .  A
N870        C871   1.347       .  A
C871        C872   1.387       .  A
C871        H874   1.082       .  S
C872        C873   1.382       .  A
C872        C929   1.472       .  S
C873        H875   1.082       .  S
N876        N877   1.325       .  A
N876        C880   1.348       .  A
N877        C878   1.349       .  A
C878        C879   1.388       .  A
C878        H881   1.082       .  S
C879        C880   1.384       .  A
C880        H882   1.082       .  S
C883        C884   1.407       .  A
C883        C888   1.408       .  A
C883       C1471   1.491       .  S
C884        C885   1.405       .  A
C884        H889   1.084       .  S
C885        C886   1.402       .  A
C885       C1458   1.479       .  S
C886        C887   1.403       .  A
C886        H890   1.084       .  S
C887        C888   1.401       .  A
C887       C1451   1.476       .  S
C888        H891   1.084       .  S
N892        N893   1.320       .  A
N892        C896   1.349       .  A
N892       Cu900   2.089       .  S
N893        C894   1.341       .  A
N893       Cu899   2.063       .  S
C894        C895   1.386       .  A
C894        H897   1.081       .  S
C895        C896   1.393       .  A
C895       C1438   1.492       .  S
C896        H898   1.081       .  S
Cu899       N902   2.061       .  S
Cu900       N910   2.090       .  S
Cu901       N903   2.090       .  S
Cu901       N909   2.091       .  S
N902        N903   1.321       .  A
N902        C906   1.344       .  A
N903        C904   1.349       .  A
C904        C905   1.388       .  A
C904        H907   1.082       .  S
C905        C906   1.381       .  A
C905       C1277   1.474       .  S
C906        H908   1.082       .  S
N909        N910   1.325       .  A
N909        C913   1.347       .  A
N910        C911   1.348       .  A
C911        C912   1.384       .  A
C911        H914   1.082       .  S
C912        C913   1.384       .  A
C913        H915   1.082       .  S
N916        N917   1.321       .  A
N916        C920   1.351       .  A
N916       Cu924   2.092       .  S
N917        C918   1.341       .  A
N917       Cu923   2.065       .  S
C918        C919   1.384       .  A
C918        H921   1.081       .  S
C919        C920   1.392       .  A
C919       C1428   1.489       .  S
C920        H922   1.081       .  S
Cu923       N926   2.063       .  S
Cu924       N934   2.093       .  S
Cu925       N927   2.087       .  S
Cu925       N933   2.088       .  S
N926        N927   1.321       .  A
N926        C930   1.344       .  A
N927        C928   1.348       .  A
C928        C929   1.388       .  A
C928        H931   1.082       .  S
C929        C930   1.381       .  A
C930        H932   1.082       .  S
N933        N934   1.325       .  A
N933        C937   1.348       .  A
N934        C935   1.348       .  A
C935        C936   1.385       .  A
C935        H938   1.082       .  S
C936        C937   1.384       .  A
C937        H939   1.082       .  S
N940        N941   1.323       .  A
N940        C944   1.352       .  A
N940       Cu948   2.103       .  S
N941        C942   1.343       .  A
N941       Cu947   2.072       .  S
C942        C943   1.382       .  A
C942        H945   1.082       .  S
C943        C944   1.391       .  A
C943       C1418   1.485       .  S
C944        H946   1.082       .  S
Cu947       N950   2.071       .  S
Cu948       N958   2.103       .  S
Cu949       N951   2.079       .  S
Cu949       N957   2.079       .  S
N950        N951   1.321       .  A
N950        C954   1.347       .  A
N951        C952   1.345       .  A
C952        C953   1.385       .  A
C952        H955   1.082       .  S
C953        C954   1.383       .  A
C953       C1010   1.472       .  S
C954        H956   1.082       .  S
N957        N958   1.324       .  A
N957        C961   1.346       .  A
N958        C959   1.350       .  A
C959        C960   1.388       .  A
C959        H962   1.082       .  S
C960        C961   1.383       .  A
C961        H963   1.082       .  S
C964        C965   1.405       .  A
C964        C969   1.405       .  A
C964       C1421   1.480       .  S
C965        C966   1.404       .  A
C965        H970   1.084       .  S
C966        C967   1.405       .  A
C966       C1441   1.479       .  S
C967        C968   1.401       .  A
C967        H971   1.084       .  S
C968        C969   1.405       .  A
C968       C1431   1.479       .  S
C969        H972   1.084       .  S
N973        N974   1.321       .  A
N973        C977   1.349       .  A
N973       Cu981   2.084       .  S
N974        C975   1.341       .  A
N974       Cu980   2.065       .  S
C975        C976   1.384       .  A
C975        H978   1.082       .  S
C976        C977   1.389       .  A
C976       C1411   1.484       .  S
C977        H979   1.082       .  S
Cu980       N983   2.064       .  S
Cu981       N991   2.086       .  S
Cu982       N984   2.088       .  S
Cu982       N990   2.089       .  S
N983        N984   1.321       .  A
N983        C987   1.343       .  A
N984        C985   1.349       .  A
C985        C986   1.388       .  A
C985        H988   1.082       .  S
C986        C987   1.381       .  A
C986       C1148   1.474       .  S
C987        H989   1.082       .  S
N990        N991   1.325       .  A
N990        C994   1.347       .  A
N991        C992   1.348       .  A
C992        C993   1.384       .  A
C992        H995   1.082       .  S
C993        C994   1.384       .  A
C994        H996   1.082       .  S
N997        N998   1.322       .  A
N997       C1001   1.351       .  A
N997      Cu1005   2.095       .  S
N998        C999   1.342       .  A
N998      Cu1004   2.064       .  S
C999       C1000   1.380       .  A
C999       H1002   1.082       .  S
C1000      C1001   1.389       .  A
C1000      C1401   1.480       .  S
C1001      H1003   1.082       .  S
Cu1004     N1007   2.062       .  S
Cu1005     N1015   2.096       .  S
Cu1006     N1008   2.089       .  S
Cu1006     N1014   2.091       .  S
N1007      N1008   1.321       .  A
N1007      C1011   1.342       .  A
N1008      C1009   1.349       .  A
C1009      C1010   1.388       .  A
C1009      H1012   1.082       .  S
C1010      C1011   1.380       .  A
C1011      H1013   1.082       .  S
N1014      N1015   1.325       .  A
N1014      C1018   1.348       .  A
N1015      C1016   1.349       .  A
C1016      C1017   1.386       .  A
C1016      H1019   1.082       .  S
C1017      C1018   1.385       .  A
C1018      H1020   1.082       .  S
N1021      N1022   1.321       .  A
N1021      C1025   1.350       .  A
N1021     Cu1029   2.095       .  S
N1022      C1023   1.341       .  A
N1022     Cu1028   2.065       .  S
C1023      C1024   1.385       .  A
C1023      H1026   1.081       .  S
C1024      C1025   1.393       .  A
C1024      C1388   1.492       .  S
C1025      H1027   1.081       .  S
Cu1028     N1031   2.063       .  S
Cu1029     N1039   2.096       .  S
Cu1030     N1032   2.098       .  S
Cu1030     N1038   2.099       .  S
N1031      N1032   1.321       .  A
N1031      C1035   1.345       .  A
N1032      C1033   1.350       .  A
C1033      C1034   1.390       .  A
C1033      H1036   1.082       .  S
C1034      C1035   1.381       .  A
C1035      H1037   1.082       .  S
N1038      N1039   1.325       .  A
N1038      C1042   1.349       .  A
N1039      C1040   1.349   1_545  A
C1040      C1041   1.386       .  A
C1040      H1043   1.082       .  S
C1041      C1042   1.386   1_565  A
C1042      H1044   1.082       .  S
C1045      C1046   1.405       .  A
C1045      C1050   1.406       .  A
C1045      C1391   1.480       .  S
C1046      C1047   1.402       .  A
C1046      H1051   1.084       .  S
C1047      C1048   1.402       .  A
C1047      C1408   1.475       .  S
C1048      C1049   1.402       .  A
C1048      H1052   1.084       .  S
C1049      C1050   1.405       .  A
C1049      C1398   1.477   1_545  S
C1050      H1053   1.084   1_545  S
N1054      N1055   1.323       .  A
N1054      C1058   1.348       .  A
N1054     Cu1062   2.087       .  S
N1055      C1056   1.343       .  A
N1055     Cu1061   2.066       .  S
C1056      C1057   1.380       .  A
C1056      H1059   1.082       .  S
C1057      C1058   1.386       .  A
C1057      C1378   1.476       .  S
C1058      H1060   1.082       .  S
Cu1061     N1064   2.065       .  S
Cu1062     N1072   2.087   1_655  S
Cu1063     N1065   2.081       .  S
Cu1063     N1071   2.082       .  S
N1064      N1065   1.321       .  A
N1064      C1068   1.344       .  A
N1065      C1066   1.347       .  A
C1066      C1067   1.386       .  A
C1066      H1069   1.082       .  S
C1067      C1068   1.381       .  A
C1068      H1070   1.082       .  S
N1071      N1072   1.324   1_655  A
N1071      C1075   1.346   1_655  A
N1072      C1073   1.347       .  A
C1073      C1074   1.385       .  A
C1073      H1076   1.082       .  S
C1074      C1075   1.383       .  A
C1075      H1077   1.082       .  S
N1078      N1079   1.321       .  A
N1078      C1082   1.350       .  A
N1078     Cu1086   2.090       .  S
N1079      C1080   1.341       .  A
N1079     Cu1085   2.062       .  S
C1080      C1081   1.382       .  A
C1080      H1083   1.082       .  S
C1081      C1082   1.390       .  A
C1081      C1371   1.484       .  S
C1082      H1084   1.082       .  S
Cu1085     N1088   2.062       .  S
Cu1086     N1096   2.091       .  S
Cu1087     N1089   2.095       .  S
Cu1087     N1095   2.096       .  S
N1088      N1089   1.321       .  A
N1088      C1092   1.344       .  A
N1089      C1090   1.349       .  A
C1090      C1091   1.389       .  A
C1090      H1093   1.082       .  S
C1091      C1092   1.381       .  A
C1091      C1172   1.475       .  S
C1092      H1094   1.082       .  S
N1095      N1096   1.325       .  A
N1095      C1099   1.349       .  A
N1096      C1097   1.348       .  A
C1097      C1098   1.384       .  A
C1097      H1100   1.082       .  S
C1098      C1099   1.386       .  A
C1099      H1101   1.082       .  S
N1102      N1103   1.322       .  A
N1102      C1106   1.351       .  A
N1102     Cu1110   2.094       .  S
N1103      C1104   1.341       .  A
N1103     Cu1109   2.066       .  S
C1104      C1105   1.382       .  A
C1104      H1107   1.082       .  S
C1105      C1106   1.390       .  A
C1105      C1358   1.484       .  S
C1106      H1108   1.082       .  S
Cu1109     N1112   2.065       .  S
Cu1110     N1120   2.095       .  S
Cu1111     N1113   2.092       .  S
Cu1111     N1119   2.094       .  S
N1112      N1113   1.321       .  A
N1112      C1116   1.345       .  A
N1113      C1114   1.348       .  A
C1114      C1115   1.388       .  A
C1114      H1117   1.082       .  S
C1115      C1116   1.382       .  A
C1116      H1118   1.082       .  S
N1119      N1120   1.325       .  A
N1119      C1123   1.348       .  A
N1120      C1121   1.349       .  A
C1121      C1122   1.386       .  A
C1121      H1124   1.082       .  S
C1122      C1123   1.386       .  A
C1123      H1125   1.082       .  S
C1126      C1127   1.404       .  A
C1126      C1131   1.402       .  A
C1126      C1381   1.478       .  S
C1127      C1128   1.405       .  A
C1127      H1132   1.084       .  S
C1128      C1129   1.405       .  A
C1128      C1361   1.476       .  S
C1129      C1130   1.403       .  A
C1129      H1133   1.084       .  S
C1130      C1131   1.403       .  A
C1130      C1368   1.476       .  S
C1131      H1134   1.084       .  S
N1135      N1136   1.320       .  A
N1135      C1139   1.348       .  A
N1135     Cu1143   2.082       .  S
N1136      C1137   1.340       .  A
N1136     Cu1142   2.070       .  S
C1137      C1138   1.389       .  A
C1137      H1140   1.079       .  S
C1138      C1139   1.393       .  A
C1138      C1351   1.496       .  S
C1139      H1141   1.081       .  S
Cu1142     N1145   2.070       .  S
Cu1143     N1153   2.083       .  S
Cu1144     N1146   2.079       .  S
Cu1144     N1152   2.080       .  S
N1145      N1146   1.321       .  A
N1145      C1149   1.347       .  A
N1146      C1147   1.345       .  A
C1147      C1148   1.385       .  A
C1147      H1150   1.082       .  S
C1148      C1149   1.384       .  A
C1149      H1151   1.082       .  S
N1152      N1153   1.323       .  A
N1152      C1156   1.345       .  A
N1153      C1154   1.347       .  A
C1154      C1155   1.384   1_545  A
C1154      H1157   1.082       .  S
C1155      C1156   1.383   1_565  A
C1156      H1158   1.082   1_545  S
N1159      N1160   1.322       .  A
N1159      C1163   1.350       .  A
N1159     Cu1167   2.097       .  S
N1160      C1161   1.341       .  A
N1160     Cu1166   2.061       .  S
C1161      C1162   1.382       .  A
C1161      H1164   1.082       .  S
C1162      C1163   1.391       .  A
C1162      C1338   1.485       .  S
C1163      H1165   1.082       .  S
Cu1166     N1169   2.060       .  S
Cu1167     N1177   2.098       .  S
Cu1168     N1170   2.091       .  S
Cu1168     N1176   2.092       .  S
N1169      N1170   1.321       .  A
N1169      C1173   1.345       .  A
N1170      C1171   1.348       .  A
C1171      C1172   1.388       .  A
C1171      H1174   1.082       .  S
C1172      C1173   1.381       .  A
C1173      H1175   1.082       .  S
N1176      N1177   1.325       .  A
N1176      C1180   1.347       .  A
N1177      C1178   1.350       .  A
C1178      C1179   1.388       .  A
C1178      H1181   1.082       .  S
C1179      C1180   1.385       .  A
C1180      H1182   1.082       .  S
N1183      N1184   1.321       .  A
N1183      C1187   1.348       .  A
N1183     Cu1191   2.078       .  S
N1184      C1185   1.340       .  A
N1184     Cu1190   2.061       .  S
C1185      C1186   1.383       .  A
C1185      H1188   1.082       .  S
C1186      C1187   1.389       .  A
C1186      C1331   1.483       .  S
C1187      H1189   1.081       .  S
Cu1190     N1193   2.061       .  S
Cu1191     N1201   2.079       .  S
Cu1192     N1194   2.097       .  S
Cu1192     N1200   2.097       .  S
N1193      N1194   1.322       .  A
N1193      C1197   1.345       .  A
N1194      C1195   1.348       .  A
C1195      C1196   1.389       .  A
C1195      H1198   1.082       .  S
C1196      C1197   1.381       .  A
C1196      C1229   1.475       .  S
C1197      H1199   1.082       .  S
N1200      N1201   1.325       .  A
N1200      C1204   1.349       .  A
N1201      C1202   1.346       .  A
C1202      C1203   1.382       .  A
C1202      H1205   1.082       .  S
C1203      C1204   1.386       .  A
C1204      H1206   1.082       .  S
C1207      C1208   1.400       .  A
C1207      C1212   1.400       .  A
C1207      C1341   1.474       .  S
C1208      C1209   1.399       .  A
C1208      H1213   1.084       .  S
C1209      C1210   1.405       .  A
C1209      C1328   1.472       .  S
C1210      C1211   1.407       .  A
C1210      H1214   1.084       .  S
C1211      C1212   1.409       .  A
C1211      C1348   1.490       .  S
C1212      H1215   1.084       .  S
N1216      N1217   1.319       .  A
N1216      C1220   1.351       .  A
N1216     Cu1224   2.094       .  S
N1217      C1218   1.339       .  A
N1217     Cu1223   2.054       .  S
C1218      C1219   1.384       .  A
C1218      H1221   1.081       .  S
C1219      C1220   1.395       .  A
C1219      C1318   1.492       .  S
C1220      H1222   1.081       .  S
Cu1223     N1226   2.052       .  S
Cu1224     N1234   2.095       .  S
Cu1225     N1227   2.096       .  S
Cu1225     N1233   2.098       .  S
N1226      N1227   1.320       .  A
N1226      C1230   1.342       .  A
N1227      C1228   1.350       .  A
C1228      C1229   1.391       .  A
C1228      H1231   1.082       .  S
C1229      C1230   1.379       .  A
C1230      H1232   1.082       .  S
N1233      N1234   1.327       .  A
N1233      C1237   1.347       .  A
N1234      C1235   1.349       .  A
C1235      C1236   1.384       .  A
C1235      H1238   1.082       .  S
C1236      C1237   1.384       .  A
C1237      H1239   1.082       .  S
N1240      N1241   1.321       .  A
N1240      C1244   1.349       .  A
N1240     Cu1248   2.085       .  S
N1241      C1242   1.341       .  A
N1241     Cu1247   2.059       .  S
C1242      C1243   1.382       .  A
C1242      H1245   1.082       .  S
C1243      C1244   1.390       .  A
C1243      C1308   1.483       .  S
C1244      H1246   1.082       .  S
Cu1247     N1250   2.059       .  S
Cu1248     N1258   2.086       .  S
Cu1249     N1251   2.104       .  S
Cu1249     N1257   2.105       .  S
N1250      N1251   1.322       .  A
N1250      C1254   1.345       .  A
N1251      C1252   1.350       .  A
C1252      C1253   1.391       .  A
C1252      H1255   1.082       .  S
C1253      C1254   1.379       .  A
C1254      H1256   1.082       .  S
N1257      N1258   1.325       .  A
N1257      C1261   1.351       .  A
N1258      C1259   1.347       .  A
C1259      C1260   1.383       .  A
C1259      H1262   1.082       .  S
C1260      C1261   1.388       .  A
C1261      H1263   1.082       .  S
N1264      N1265   1.322       .  A
N1264      C1268   1.349       .  A
N1264     Cu1272   2.084       .  S
N1265      C1266   1.343       .  A
N1265     Cu1271   2.071       .  S
C1266      C1267   1.383       .  A
C1266      H1269   1.082       .  S
C1267      C1268   1.387       .  A
C1267      C1301   1.481       .  S
C1268      H1270   1.082       .  S
Cu1271     N1274   2.071       .  S
Cu1272     N1282   2.084       .  S
Cu1273     N1275   2.087       .  S
Cu1273     N1281   2.087       .  S
N1274      N1275   1.322       .  A
N1274      C1278   1.346       .  A
N1275      C1276   1.347       .  A
C1276      C1277   1.386       .  A
C1276      H1279   1.082       .  S
C1277      C1278   1.382       .  A
C1278      H1280   1.082       .  S
N1281      N1282   1.324       .  A
N1281      C1285   1.347       .  A
N1282      C1283   1.347       .  A
C1283      C1284   1.384       .  A
C1283      H1286   1.082       .  S
C1284      C1285   1.385       .  A
C1285      H1287   1.082       .  S
C1288      C1289   1.402       .  A
C1288      C1293   1.403       .  A
C1288      C1311   1.474       .  S
C1289      C1290   1.405       .  A
C1289      H1294   1.084       .  S
C1290      C1291   1.404       .  A
C1290      C1321   1.480       .  S
C1291      C1292   1.404       .  A
C1291      H1295   1.084       .  S
C1292      C1293   1.402       .  A
C1292      C1298   1.475       .  S
C1293      H1296   1.084       .  S
C1297      C1298   1.403       .  A
C1297      C1302   1.397       .  A
C1297      F1304   1.358       .  S
C1298      C1299   1.403       .  A
C1299      C1300   1.403       .  A
C1299      F1306   1.357       .  S
C1300      C1301   1.409       .  A
C1300      F1305   1.357       .  S
C1301      C1302   1.407       .  A
C1302      F1303   1.358       .  S
C1307      C1308   1.410       .  A
C1307      C1312   1.403   1_655  A
C1307      F1314   1.357       .  S
C1308      C1309   1.409       .  A
C1309      C1310   1.396       .  A
C1309      F1316   1.358       .  S
C1310      C1311   1.401   1_655  A
C1310      F1315   1.358       .  S
C1311      C1312   1.403       .  A
C1312      F1313   1.358       .  S
C1317      C1318   1.413       .  A
C1317      C1322   1.396       .  A
C1317      F1324   1.357       .  S
C1318      C1319   1.412   1_545  A
C1319      C1320   1.404       .  A
C1319      F1326   1.356       .  S
C1320      C1321   1.404       .  A
C1320      F1325   1.357       .  S
C1321      C1322   1.402   1_565  A
C1322      F1323   1.358       .  S
C1327      C1328   1.401       .  A
C1327      C1332   1.395       .  A
C1327      F1334   1.358       .  S
C1328      C1329   1.403       .  A
C1329      C1330   1.402       .  A
C1329      F1336   1.358       .  S
C1330      C1331   1.410       .  A
C1330      F1335   1.357       .  S
C1331      C1332   1.409       .  A
C1332      F1333   1.358       .  S
C1337      C1338   1.409       .  A
C1337      C1342   1.395       .  A
C1337      F1344   1.358       .  S
C1338      C1339   1.411       .  A
C1339      C1340   1.404       .  A
C1339      F1346   1.357       .  S
C1340      C1341   1.402       .  A
C1340      F1345   1.357       .  S
C1341      C1342   1.402       .  A
C1342      F1343   1.359       .  S
C1347      C1348   1.406       .  A
C1347      C1352   1.393       .  A
C1347      F1354   1.358       .  S
C1348      C1349   1.408       .  A
C1349      C1350   1.405       .  A
C1349      F1356   1.358       .  S
C1350      C1351   1.413       .  A
C1350      F1355   1.356       .  S
C1351      C1352   1.412       .  A
C1352      F1353   1.355       .  S
C1357      C1358   1.408       .  A
C1357      C1362   1.396       .  A
C1357      F1364   1.358       .  S
C1358      C1359   1.410       .  A
C1359      C1360   1.405       .  A
C1359      F1366   1.357       .  S
C1360      C1361   1.404       .  A
C1360      F1365   1.357       .  S
C1361      C1362   1.401       .  A
C1362      F1363   1.358       .  S
C1367      C1368   1.402   1_455  A
C1367      C1372   1.396       .  A
C1367      F1374   1.358       .  S
C1368      C1369   1.404       .  A
C1369      C1370   1.404   1_655  A
C1369      F1376   1.358       .  S
C1370      C1371   1.410       .  A
C1370      F1375   1.357       .  S
C1371      C1372   1.409       .  A
C1372      F1373   1.358       .  S
C1377      C1378   1.405       .  A
C1377      C1382   1.399       .  A
C1377      F1384   1.358   1_655  S
C1378      C1379   1.406       .  A
C1379      C1380   1.402   1_556  A
C1379      F1386   1.358       .  S
C1380      C1381   1.404       .  A
C1380      F1385   1.357       .  S
C1381      C1382   1.405   1_554  A
C1382      F1383   1.358       .  S
C1387      C1388   1.412       .  A
C1387      C1392   1.398       .  A
C1387      F1394   1.357       .  S
C1388      C1389   1.412       .  A
C1389      C1390   1.404       .  A
C1389      F1396   1.357       .  S
C1390      C1391   1.403       .  A
C1390      F1395   1.357       .  S
C1391      C1392   1.402       .  A
C1392      F1393   1.358       .  S
C1397      C1398   1.404       .  A
C1397      C1402   1.398       .  A
C1397      F1404   1.358       .  S
C1398      C1399   1.404       .  A
C1399      C1400   1.404       .  A
C1399      F1406   1.357   1_565  S
C1400      C1401   1.407       .  A
C1400      F1405   1.357       .  S
C1401      C1402   1.406       .  A
C1402      F1403   1.358       .  S
C1407      C1408   1.404       .  A
C1407      C1412   1.404   1_556  A
C1407      F1414   1.358       .  S
C1408      C1409   1.401   1_556  A
C1409      C1410   1.395       .  A
C1409      F1416   1.358       .  S
C1410      C1411   1.409       .  A
C1410      F1415   1.357       .  S
C1411      C1412   1.410       .  A
C1412      F1413   1.357       .  S
C1417      C1418   1.408       .  A
C1417      C1422   1.406       .  A
C1417      F1424   1.357       .  S
C1418      C1419   1.408       .  A
C1419      C1420   1.399       .  A
C1419      F1426   1.358       .  S
C1420      C1421   1.403       .  A
C1420      F1425   1.358       .  S
C1421      C1422   1.405       .  A
C1422      F1423   1.357       .  S
C1427      C1428   1.411       .  A
C1427      C1432   1.397       .  A
C1427      F1434   1.357       .  S
C1428      C1429   1.411       .  A
C1429      C1430   1.405       .  A
C1429      F1436   1.357       .  S
C1430      C1431   1.404       .  A
C1430      F1435   1.357       .  S
C1431      C1432   1.401       .  A
C1432      F1433   1.358       .  S
C1437      C1438   1.412       .  A
C1437      C1442   1.396       .  A
C1437      F1444   1.357       .  S
C1438      C1439   1.413       .  A
C1439      C1440   1.404       .  A
C1439      F1446   1.356       .  S
C1440      C1441   1.403       .  A
C1440      F1445   1.358       .  S
C1441      C1442   1.402       .  A
C1442      F1443   1.358       .  S
C1447      C1448   1.409       .  A
C1447      C1452   1.408       .  A
C1447      F1454   1.357       .  S
C1448      C1449   1.407       .  A
C1449      C1450   1.393       .  A
C1449      F1456   1.358       .  S
C1450      C1451   1.401       .  A
C1450      F1455   1.359       .  S
C1451      C1452   1.405       .  A
C1452      F1453   1.357       .  S
C1457      C1458   1.402       .  A
C1457      C1462   1.398       .  A
C1457      F1464   1.358       .  S
C1458      C1459   1.403       .  A
C1459      C1460   1.403       .  A
C1459      F1466   1.357       .  S
C1460      C1461   1.412       .  A
C1460      F1465   1.356       .  S
C1461      C1462   1.412       .  A
C1462      F1463   1.357       .  S
C1467      C1468   1.410       .  A
C1467      C1472   1.396       .  A
C1467      F1474   1.356       .  S
C1468      C1469   1.412       .  A
C1469      C1470   1.403       .  A
C1469      F1476   1.357       .  S
C1470      C1471   1.408       .  A
C1470      F1475   1.358       .  S
C1471      C1472   1.408       .  A
C1472      F1473   1.358       .  S
C1477      C1478   1.408       .  A
C1477      C1482   1.395       .  A
C1477      F1484   1.357       .  S
C1478      C1479   1.411       .  A
C1479      C1480   1.403       .  A
C1479      F1486   1.357       .  S
C1480      C1481   1.403       .  A
C1480      F1485   1.358       .  S
C1481      C1482   1.401       .  A
C1482      F1483   1.358       .  S
C1487      C1488   1.409       .  A
C1487      C1492   1.399       .  A
C1487      F1494   1.358       .  S
C1488      C1489   1.410       .  A
C1489      C1490   1.402       .  A
C1489      F1496   1.357       .  S
C1490      C1491   1.402       .  A
C1490      F1495   1.357       .  S
C1491      C1492   1.402       .  A
C1492      F1493   1.358       .  S
C1497      C1498   1.411       .  A
C1497      C1502   1.404       .  A
C1497      F1504   1.357       .  S
C1498      C1499   1.409       .  A
C1499      C1500   1.394       .  A
C1499      F1506   1.357       .  S
C1500      C1501   1.400       .  A
C1500      F1505   1.358       .  S
C1501      C1502   1.403       .  A
C1502      F1503   1.358       .  S
C1507      C1508   1.408       .  A
C1507      C1512   1.404       .  A
C1507      F1514   1.357       .  S
C1508      C1509   1.410       .  A
C1509      C1510   1.397       .  A
C1509      F1516   1.358       .  S
C1510      C1511   1.401       .  A
C1510      F1515   1.358       .  S
C1511      C1512   1.405       .  A
C1512      F1513   1.358       .  S
C1517      C1518   1.412       .  A
C1517      C1522   1.395       .  A
C1517      F1524   1.357       .  S
C1518      C1519   1.411       .  A
C1519      C1520   1.404       .  A
C1519      F1526   1.357       .  S
C1520      C1521   1.405       .  A
C1520      F1525   1.357       .  S
C1521      C1522   1.402       .  A
C1522      F1523   1.359       .  S
C1527      C1528   1.412       .  A
C1527      C1532   1.398       .  A
C1527      F1534   1.356       .  S
C1528      C1529   1.410       .  A
C1529      C1530   1.404       .  A
C1529      F1536   1.356       .  S
C1530      C1531   1.411       .  A
C1530      F1535   1.357       .  S
C1531      C1532   1.410       .  A
C1532      F1533   1.358       .  S
C1537      C1538   1.412       .  A
C1537      C1542   1.405       .  A
C1537      F1544   1.357       .  S
C1538      C1539   1.412       .  A
C1539      C1540   1.395       .  A
C1539      F1546   1.357       .  S
C1540      C1541   1.402       .  A
C1540      F1545   1.358       .  S
C1541      C1542   1.406       .  A
C1542      F1543   1.358       .  S
C1547      C1548   1.419       .  A
C1547      C1552   1.398       .  A
C1547      F1554   1.354       .  S
C1548      C1549   1.416       .  A
C1549      C1550   1.404       .  A
C1549      F1556   1.355       .  S
C1550      C1551   1.405       .  A
C1550      F1555   1.358       .  S
C1551      C1552   1.402       .  A
C1552      F1553   1.359       .  S
C1557      C1558   1.411       .  A
C1557      C1562   1.402       .  A
C1557      F1564   1.357       .  S
C1558      C1559   1.411       .  A
C1559      C1560   1.398       .  A
C1559      F1566   1.357       .  S
C1560      C1561   1.402       .  A
C1560      F1565   1.358       .  S
C1561      C1562   1.403       .  A
C1562      F1563   1.358       .  S
C1567      C1568   1.406       .  A
C1567      C1572   1.398       .  A
C1567      F1574   1.358       .  S
C1568      C1569   1.407       .  A
C1569      C1570   1.402       .  A
C1569      F1576   1.357       .  S
C1570      C1571   1.404       .  A
C1570      F1575   1.358       .  S
C1571      C1572   1.404       .  A
C1572      F1573   1.358       .  S
C1577      C1578   1.407       .  A
C1577      C1582   1.395       .  A
C1577      F1584   1.358       .  S
C1578      C1579   1.408       .  A
C1579      C1580   1.405       .  A
C1579      F1586   1.358       .  S
C1580      C1581   1.405       .  A
C1580      F1585   1.358       .  S
C1581      C1582   1.401       .  A
C1582      F1583   1.358       .  S
C1587      C1588   1.408       .  A
C1587      C1592   1.401       .  A
C1587      F1594   1.357       .  S
C1588      C1589   1.408       .  A
C1589      C1590   1.398       .  A
C1589      F1596   1.358       .  S
C1590      C1591   1.402       .  A
C1590      F1595   1.358       .  S
C1591      C1592   1.403       .  A
C1592      F1593   1.357       .  S
C1597      C1598   1.401   1_556  A
C1597      C1602   1.397       .  A
C1597      F1604   1.358       .  S
C1598      C1599   1.404       .  A
C1599      C1600   1.404   1_554  A
C1599      F1606   1.357       .  S
C1600      C1601   1.410       .  A
C1600      F1605   1.357       .  S
C1601      C1602   1.410       .  A
C1602      F1603   1.357       .  S
C1607      C1608   1.414       .  A
C1607      C1612   1.399       .  A
C1607      F1614   1.357       .  S
C1608      C1609   1.412       .  A
C1609      C1610   1.404   1_655  A
C1609      F1616   1.356       .  S
C1610      C1611   1.403       .  A
C1610      F1615   1.357       .  S
C1611      C1612   1.402   1_455  A
C1612      F1613   1.358       .  S
C1617      C1618   1.412       .  A
C1617      C1622   1.396       .  A
C1617      F1624   1.357       .  S
C1618      C1619   1.413       .  A
C1619      C1620   1.406   1_565  A
C1619      F1626   1.357       .  S
C1620      C1621   1.406   1_545  A
C1620      F1625   1.358       .  S
C1621      C1622   1.401       .  A
C1622      F1623   1.358       .  S
C1627      C1628   1.406       .  A
C1627      C1632   1.395       .  A
C1627      F1634   1.358       .  S
C1628      C1629   1.408       .  A
C1629      C1630   1.404       .  A
C1629      F1636   1.358       .  S
C1630      C1631   1.404       .  A
C1630      F1635   1.357       .  S
C1631      C1632   1.401       .  A
C1632      F1633   1.358       .  S
C1637      C1638   1.406       .  A
C1637      C1642   1.399       .  A
C1637      F1644   1.358       .  S
C1638      C1639   1.405       .  A
C1639      C1640   1.402       .  A
C1639      F1646   1.358       .  S
C1640      C1641   1.406       .  A
C1640      F1645   1.358       .  S
C1641      C1642   1.405       .  A
C1642      F1643   1.358       .  S
C1647      C1648   1.402       .  A
C1647      C1652   1.402       .  A
C1647      F1654   1.358       .  S
C1648      C1649   1.402       .  A
C1649      C1650   1.397       .  A
C1649      F1656   1.358       .  S
C1650      C1651   1.409       .  A
C1650      F1655   1.358       .  S
C1651      C1652   1.410       .  A
C1652      F1653   1.357       .  S
C1657      C1658   1.402       .  A
C1657      C1662   1.398       .  A
C1657      F1664   1.358       .  S
C1658      C1659   1.402       .  A
C1659      C1660   1.402       .  A
C1659      F1666   1.358       .  S
C1660      C1661   1.412       .  A
C1660      F1665   1.357       .  S
C1661      C1662   1.412       .  A
C1662      F1663   1.357       .  S
C1667      C1668   1.406       .  A
C1667      C1672   1.397   1_565  A
C1667      F1674   1.358       .  S
C1668      C1669   1.404       .  A
C1669      C1670   1.402       .  A
C1669      F1676   1.357       .  S
C1670      C1671   1.407   1_565  A
C1670      F1675   1.357   1_565  S
C1671      C1672   1.405       .  A
C1672      F1673   1.358       .  S
C1677      C1678   1.411       .  A
C1677      C1682   1.407       .  A
C1677      F1684   1.357       .  S
C1678      C1679   1.411       .  A
C1679      C1680   1.397       .  A
C1679      F1686   1.357       .  S
C1680      C1681   1.402       .  A
C1680      F1685   1.358       .  S
C1681      C1682   1.406       .  A
C1682      F1683   1.357       .  S
C1687      C1688   1.406       .  A
C1687      C1692   1.399       .  A
C1687      F1694   1.358       .  S
C1688      C1689   1.405       .  A
C1689      C1690   1.398       .  A
C1689      F1696   1.358       .  S
C1690      C1691   1.404       .  A
C1690      F1695   1.358       .  S
C1691      C1692   1.402       .  A
C1692      F1693   1.357       .  S
C1697      C1698   1.412       .  A
C1697      C1702   1.405       .  A
C1697      F1704   1.357       .  S
C1698      C1699   1.411       .  A
C1699      C1700   1.392       .  A
C1699      F1706   1.357       .  S
C1700      C1701   1.399       .  A
C1700      F1705   1.359       .  S
C1701      C1702   1.403       .  A
C1702      F1703   1.358       .  S
C1707      C1708   1.410       .  A
C1707      C1712   1.402       .  A
C1707      F1714   1.357       .  S
C1708      C1709   1.409       .  A
C1709      C1710   1.395       .  A
C1709      F1716   1.358       .  S
C1710      C1711   1.401       .  A
C1710      F1715   1.358       .  S
C1711      C1712   1.403       .  A
C1712      F1713   1.358       .  S
C1717      C1718   1.412       .  A
C1717      C1722   1.395       .  A
C1717      F1724   1.357       .  S
C1718      C1719   1.412       .  A
C1719      C1720   1.403       .  A
C1719      F1726   1.357       .  S
C1720      C1721   1.403       .  A
C1720      F1725   1.358       .  S
C1721      C1722   1.401       .  A
C1722      F1723   1.358       .  S
C1727      C1728   1.401       .  A
C1727      C1732   1.397       .  A
C1727      F1734   1.358       .  S
C1728      C1729   1.403       .  A
C1729      C1730   1.403       .  A
C1729      F1736   1.358   1_554  S
C1730      C1731   1.409       .  A
C1730      F1735   1.357       .  S
C1731      C1732   1.408       .  A
C1732      F1733   1.358       .  S
C1737      C1738   1.411       .  A
C1737      C1742   1.398       .  A
C1737      F1744   1.357   1_556  S
C1738      C1739   1.411       .  A
C1739      C1740   1.402       .  A
C1739      F1746   1.357       .  S
C1740      C1741   1.402       .  A
C1740      F1745   1.357       .  S
C1741      C1742   1.402       .  A
C1742      F1743   1.358       .  S
C1747      C1748   1.408       .  A
C1747      C1752   1.394       .  A
C1747      F1754   1.358       .  S
C1748      C1749   1.409       .  A
C1749      C1750   1.403       .  A
C1749      F1756   1.357       .  S
C1750      C1751   1.403       .  A
C1750      F1755   1.357       .  S
C1751      C1752   1.401       .  A
C1752      F1753   1.358       .  S
C1757      C1758   1.412       .  A
C1757      C1762   1.396       .  A
C1757      F1764   1.357       .  S
C1758      C1759   1.412       .  A
C1759      C1760   1.404   1_455  A
C1759      F1766   1.356       .  S
C1760      C1761   1.404       .  A
C1760      F1765   1.358       .  S
C1761      C1762   1.402   1_655  A
C1762      F1763   1.359       .  S
C1767      C1768   1.408       .  A
C1767      C1772   1.396       .  A
C1767      F1774   1.358       .  S
C1768      C1769   1.409       .  A
C1769      C1770   1.401       .  A
C1769      F1776   1.357       .  S
C1770      C1771   1.402       .  A
C1770      F1775   1.358       .  S
C1771      C1772   1.402       .  A
C1772      F1773   1.358       .  S
