geometry optimzed in LAMMPS
_audit_creation_date              2020-11-30 
_audit_creation_method            'lammps2cif' 
_symmetry_space_group_name_H-M    'P1' 
_symmetry_Int_Tables_number       1 
_symmetry_cell_setting            triclinic 
loop_ 
_symmetry_equiv_pos_as_xyz 
  x,y,z 
_cell_length_a                    39.83868259 
_cell_length_b                    38.186424854083015 
_cell_length_c                    33.69868052723165 
_cell_angle_alpha                 90.01623899173462 
_cell_angle_beta                  116.46423144010602 
_cell_angle_gamma                 90.44035892867835 
loop_ 
_atom_site_label 
_atom_site_type_symbol 
_atom_site_fract_x 
_atom_site_fract_y 
_atom_site_fract_z 
_atom_site_charge 
C1          C  0.89160731  0.18613721  0.66476811     0.03700
C2          C  0.85241280  0.18826411  0.64590358    -0.12500
C3          C  0.83221602  0.16869335  0.66335679     0.01200
C4          C  0.85128895  0.14712485  0.70007854    -0.11000
C5          C  0.89039102  0.14470712  0.71927685     0.03600
C6          C  0.91053993  0.16439715  0.70166787    -0.10400
H7          H  0.83755592  0.20454794  0.61705603     0.09200
H8          H  0.83561927  0.13182669  0.71337442     0.06800
H9          H  0.94082139  0.16254592  0.71637036     0.06600
Zr10       Zr  0.47984313  0.10466632  0.48156887     2.17500
O11         O  0.46242942  0.04315944  0.46471052    -0.50800
O12         O  0.41427709  0.12183869  0.44955226    -0.74000
O13         O  0.46254226  0.07899215  0.53650505    -0.80800
O14         O  0.49300649  0.11229218  0.37596976    -0.82500
O15         O  0.48878263  0.11242055  0.59902031    -0.78200
O16         O  0.46266209  0.08073068  0.40757885    -0.89800
O17         O  0.41136167  0.18093807  0.45432597    -0.75800
O18         O  0.47654863  0.15375016  0.52339133    -0.85300
O19         O  0.47698287  0.15528333  0.43891246    -0.84900
O20         O  0.53604491  0.10216043  0.55080946    -0.71700
O21         O  0.53670777  0.10362080  0.47302855    -0.83800
Zr22       Zr  0.58594391  0.20369916  0.53969698     2.26400
Zr23       Zr  0.53304968  0.15271063  0.59151960     2.06300
Zr24       Zr  0.53332453  0.15484971  0.43030732     2.10000
Zr25       Zr  0.47450215  0.20421966  0.48125639     1.78800
O26         O  0.56653432  0.12435007  0.39518411    -0.92600
O27         O  0.45541131  0.23486099  0.53119433    -0.40400
O28         O  0.53008228  0.20522177  0.47052328    -0.77100
O29         O  0.53004282  0.20462236  0.55003625    -0.95800
O30         O  0.58984151  0.15361147  0.58369434    -0.89100
O31         O  0.58947642  0.15414501  0.49858589    -0.91900
C32         C  0.39607594  0.15049166  0.44397812     1.01800
C33         C  0.47014488  0.08805692  0.37508138     1.14800
C34         C  0.46762040  0.08719761  0.57585215     1.05500
O35         O  0.50056032  0.18503133  0.62609875    -0.94100
O36         O  0.57392743  0.19521498  0.64562090    -0.89800
O37         O  0.60226799  0.22858451  0.61313577    -0.83000
C38         C  0.59533270  0.22067761  0.64590374     1.12200
O39         O  0.59108568  0.04088083  0.54757023    -0.96000
Zr40       Zr  0.59276661  0.10444279  0.54241995     1.88900
O41         O  0.65159724  0.18899019  0.57622018    -0.72700
O42         O  0.56781402  0.11699493  0.65696825    -0.52000
O43         O  0.62354677  0.08458382  0.61901570    -0.96600
O44         O  0.62142799  0.07252802  0.50286373    -0.53900
O45         O  0.65567415  0.12991363  0.57169495    -0.73200
C46         C  0.67024712  0.16070025  0.58234790     0.99100
O47         O  0.59788980  0.26629415  0.54072172    -0.62000
O48         O  0.49516984  0.18991155  0.36569595    -0.56800
O49         O  0.60529996  0.22793767  0.48597364    -0.93500
O50         O  0.57566309  0.19709554  0.42165083    -0.91900
O51         O  0.43376710  0.23117871  0.41078096    -0.92300
O52         O  0.48192900  0.26682373  0.47363374    -0.91100
C53         C  0.59850554  0.22107946  0.44568736     1.18000
H54         H  0.45517193  0.15458435  0.41040235     0.33900
H55         H  0.52981973  0.22522220  0.56649874     0.44800
H56         H  0.61110178  0.15541767  0.49294855     0.38300
H57         H  0.53600912  0.08104052  0.56653439     0.34800
H58         H  0.43239761  0.24749658  0.51139393     0.26600
H59         H  0.55575175  0.12143041  0.67657989     0.32500
H60         H  0.64939683  0.07874321  0.62438165     0.38400
H61         H  0.44357364  0.22333573  0.38999720     0.32900
H62         H  0.49974289  0.21442793  0.37650606     0.31700
H63         H  0.56877109  0.09994394  0.40592432     0.33400
H64         H  0.64793279  0.06949771  0.52479019     0.32400
H65         H  0.50791859  0.27224918  0.49577260     0.36400
H66         H  0.57746431  0.27726545  0.54524103     0.29100
H67         H  0.43672845  0.04104680  0.46210498     0.33400
H68         H  0.56421094  0.03488693  0.53680888     0.36200
H69         H  0.50764401  0.18805914  0.34611744     0.28800
H70         H  0.62105311  0.27105994  0.56826650     0.41700
H71         H  0.51074964  0.17580137  0.65667946     0.31800
H72         H  0.44655591  0.21615231  0.54464887     0.39400
H73         H  0.62247950  0.08950379  0.48125992     0.31200
H74         H  0.56101295  0.09243674  0.64699917     0.31300
H75         H  0.47853163  0.03025001  0.49194550     0.31500
C76         C  0.17381544  0.12813116  0.35557180     0.03700
C77         C  0.15458426  0.14706468  0.31627639    -0.12500
C78         C  0.17460648  0.16608177  0.29806021     0.01200
C79         C  0.21387969  0.16612096  0.31916730    -0.11000
C80         C  0.23325417  0.14723412  0.35836162     0.03600
C81         C  0.21315253  0.12828013  0.37647469    -0.10400
H82         H  0.12419560  0.14715053  0.30007367     0.09200
H83         H  0.22934472  0.18101205  0.30524676     0.06800
H84         H  0.22810615  0.11368346  0.40684319     0.06600
C85         C  0.67669500  0.30285100  0.36627295     0.03700
C86         C  0.65700441  0.32302318  0.32817018    -0.12500
C87         C  0.67644428  0.34293826  0.30998804     0.01200
C88         C  0.71575412  0.34269658  0.33020425    -0.11000
C89         C  0.73572667  0.32224251  0.36805066     0.03600
C90         C  0.71598747  0.30231163  0.38583824    -0.10400
H91         H  0.62662391  0.32325847  0.31273634     0.09200
H92         H  0.72909335  0.02853139  0.31196389     0.06800
H93         H  0.73117874  0.28636947  0.41492716     0.06600
Zr94       Zr  0.97899704  0.27480558  0.48268836     2.17500
O95         O  0.96216354  0.21281526  0.47248135    -0.50800
O96         O  0.91456593  0.29431238  0.45008758    -0.74000
O97         O  0.96144304  0.25384760  0.53975938    -0.80800
O98         O  0.98968438  0.27716060  0.37576219    -0.82500
O99         O  0.99313191  0.28609087  0.60251732    -0.78200
O100        O  0.95907925  0.24851183  0.40936152    -0.89800
O101        O  0.91330344  0.02034835  0.45274650    -0.75800
O102        O  0.97953433  0.32569400  0.52393633    -0.85300
O103        O  0.97679235  0.32406020  0.43805406    -0.84900
O104        O  0.03628393  0.27172885  0.55039429    -0.71700
O105        O  0.03364357  0.26989667  0.47013610    -0.83800
Zr106      Zr  0.08913564  0.03187322  0.53520034     2.26400
Zr107      Zr  0.03706698  0.32389815  0.59062300     2.06300
Zr108      Zr  0.03170556  0.32033750  0.42686932     2.10000
Zr109      Zr  0.97786198  0.03966343  0.47917705     1.78800
O110        O  0.06313852  0.28873423  0.39042175    -0.92600
O111        O  0.95944486  0.07279766  0.52797323    -0.40400
O112        O  0.03262523  0.03606825  0.46705410    -0.77100
O113        O  0.03437068  0.03783620  0.54718160    -0.95800
O114        O  0.09251073  0.31971021  0.57999785    -0.89100
O115        O  0.08919245  0.31803865  0.49344307    -0.91900
C116        C  0.89799875  0.32373707  0.44551264     1.01800
C117        C  0.96646051  0.25396419  0.37635346     1.14800
C118        C  0.96929747  0.26228853  0.57999128     1.05500
O119        O  0.00503563  0.02105817  0.62668108    -0.94100
O120        O  0.07824780  0.02904438  0.64304634    -0.89800
O121        O  0.10914398  0.05684902  0.60919304    -0.83000
C122        C  0.10173620  0.05184343  0.64221550     1.12200
O123        O  0.08322719  0.20608696  0.54196738    -0.96000
Zr124      Zr  0.09090826  0.26914854  0.53764857     1.88900
O125        O  0.15307938  0.01163152  0.56644128    -0.72700
O126        O  0.07175530  0.28871090  0.65638401    -0.52000
O127        O  0.12630527  0.24400511  0.61098585    -0.96600
O128        O  0.11394517  0.24122352  0.48953526    -0.53900
O129        O  0.15553559  0.28858175  0.56532716    -0.73200
C130        C  0.17204101  0.31850410  0.57517276     0.99100
O131        O  0.10672499  0.09337049  0.53751811    -0.62000
O132        O  0.99503384  0.01297572  0.35602261    -0.56800
O133        O  0.10700293  0.05489303  0.47985561    -0.93500
O134        O  0.07325359  0.02550449  0.41521918    -0.91900
O135        O  0.94216171  0.06577071  0.40635994    -0.92300
O136        O  0.98802069  0.10198631  0.47321218    -0.91100
C137        C  0.09783110  0.04842080  0.43885041     1.18000
H138        H  0.95453915  0.32359645  0.41008640     0.33900
H139        H  0.03598348  0.05898984  0.56350315     0.44800
H140        H  0.11019535  0.31773165  0.48650813     0.38300
H141        H  0.03584643  0.25132783  0.56704938     0.34800
H142        H  0.93533980  0.08370463  0.50792067     0.26600
H143        H  0.09756327  0.28789144  0.65927574     0.32500
H144        H  0.14071118  0.26383653  0.63007267     0.38400
H145        H  0.92470674  0.04723587  0.38780894     0.32900
H146        H  0.99791482  0.03834104  0.36295332     0.31700
H147        H  0.06213474  0.26383408  0.39799609     0.33400
H148        H  0.09241721  0.22756675  0.46768480     0.32400
H149        H  0.01316843  0.10696187  0.49766871     0.36400
H150        H  0.08642107  0.10637951  0.54010257     0.29100
H151        H  0.93876326  0.21041622  0.47577153     0.33400
H152        H  0.06331430  0.19926112  0.51244654     0.36200
H153        H  0.00924515  0.00906971  0.33867212     0.28800
H154        H  0.12926914  0.09727759  0.56600636     0.41700
H155        H  0.01756174  0.01358815  0.65806526     0.31800
H156        H  0.95261436  0.05478700  0.54427922     0.39400
H157        H  0.13190844  0.22337752  0.50828101     0.31200
H158        H  0.07379870  0.30358545  0.68143857     0.31300
H159        H  0.98168222  0.20117443  0.49875852     0.31500
C160        C  0.39056051  0.00514975  0.65624729     0.03700
C161        C  0.41365802  0.32620021  0.69648451    -0.12500
C162        C  0.39412224  0.30597055  0.71423726     0.01200
C163        C  0.35487875  0.30577664  0.69372795    -0.11000
C164        C  0.33182991  0.98274106  0.65226432     0.03600
C165        C  0.35129594  0.00289352  0.63440032    -0.10400
H166        H  0.44405132  0.32646272  0.71253555     0.09200
H167        H  0.33982721  0.29023270  0.70761536     0.06800
H168        H  0.33590224  0.01713764  0.60384202     0.06600
C169        C  0.89068958  0.13094205  0.15893177     0.03700
C170        C  0.85122324  0.13056292  0.13887740    -0.12500
C171        C  0.83172670  0.14904983  0.15803052     0.01200
C172        C  0.85179969  0.16801864  0.19724191    -0.11000
C173        C  0.89107695  0.16877173  0.21744740     0.03600
C174        C  0.91049283  0.15013981  0.19830171    -0.10400
H175        H  0.83573891  0.11599701  0.10839993     0.09200
H176        H  0.83679124  0.18264986  0.21177489     0.06800
H177        H  0.94087672  0.15068710  0.21388411     0.06600
Zr178      Zr  0.58473884  0.11289050  0.04026566     2.17500
O179        O  0.59670229  0.05046628  0.05214951    -0.50800
O180        O  0.65030457  0.12955664  0.07160789    -0.74000
O181        O  0.60401363  0.08980536  0.98634441    -0.80800
O182        O  0.57237982  0.11989037  0.14600853    -0.82500
O183        O  0.57702475  0.12252315  0.92370813    -0.78200
O184        O  0.60376065  0.09009844  0.11456418    -0.89800
O185        O  0.65438007  0.18887892  0.07040933    -0.75800
O186        O  0.58786448  0.16220864  0.99897653    -0.85300
O187        O  0.58833871  0.16299731  0.08393007    -0.84900
O188        O  0.52878959  0.10922893  0.97113733    -0.71700
O189        O  0.52902970  0.11098959  0.05081096    -0.83800
Zr190      Zr  0.47881403  0.20928763  0.98259832     2.26400
Zr191      Zr  0.53153814  0.16017231  0.93097599     2.06300
Zr192      Zr  0.53215836  0.16253229  0.09272500     2.10000
Zr193      Zr  0.59098116  0.21212007  0.04246250     1.78800
O194        O  0.50146566  0.13269918  0.13173498    -0.92600
O195        O  0.61790732  0.24380874  0.00070851    -0.40400
O196        O  0.53468182  0.21288000  0.05178998    -0.77100
O197        O  0.53511608  0.21134761  0.97345915    -0.95800
O198        O  0.47529799  0.15867628  0.93965891    -0.89100
O199        O  0.47583546  0.16000197  0.02455685    -0.91900
C200        C  0.66908035  0.15823903  0.07877812     1.01800
C201        C  0.59578433  0.09658373  0.14682575     1.14800
C202        C  0.59898380  0.09829618  0.94720946     1.05500
O203        O  0.56305074  0.19501337  0.89687439    -0.94100
O204        O  0.49036418  0.20128659  0.87661534    -0.89800
O205        O  0.46096024  0.23306018  0.90873895    -0.83000
C206        C  0.46806811  0.22555341  0.87605341     1.12200
O207        O  0.48084848  0.04625637  0.98813340    -0.96000
Zr208      Zr  0.47326738  0.10955465  0.98200463     1.88900
O209        O  0.41348032  0.19194921  0.94607230    -0.72700
O210        O  0.49554756  0.12499046  0.86490062    -0.52000
O211        O  0.44331165  0.08005139  0.91035563    -0.96600
O212        O  0.44469830  0.08099448  0.02433294    -0.53900
O213        O  0.41001593  0.13256092  0.94857600    -0.73200
C214        C  0.39519680  0.16298749  0.93836824     0.99100
O215        O  0.46634488  0.27178558  0.97166646    -0.62000
O216        O  0.56982737  0.20037591  0.15530325    -0.56800
O217        O  0.46011751  0.23381307  0.03645304    -0.93500
O218        O  0.48868889  0.20281537  0.10039046    -0.91900
O219        O  0.62268705  0.23377133  0.11845351    -0.92300
O220        O  0.58406629  0.27550083  0.04144424    -0.97500
C221        C  0.46641400  0.22668668  0.07640095     1.18000
H222        H  0.61020744  0.16230876  0.11234172     0.33900
H223        H  0.53526702  0.23197567  0.95699726     0.44800
H224        H  0.45400156  0.16091797  0.03001344     0.38300
H225        H  0.52892037  0.08818955  0.95521717     0.34800
H226        H  0.64301488  0.25152430  0.02314252     0.26600
H227        H  0.50063627  0.13594203  0.84148035     0.32500
H228        H  0.43281315  0.09914469  0.88848191     0.38400
H229        H  0.63977460  0.25252732  0.11793487     0.32900
H230        H  0.55937372  0.22411685  0.14628502     0.31700
H231        H  0.50770984  0.14704919  0.15864068     0.33400
H232        H  0.41775571  0.07866537  0.00348004     0.32400
H233        H  0.55898261  0.27994628  0.01677480     0.36400
H234        H  0.44205072  0.27559965  0.97235535     0.29100
H235        H  0.61958751  0.04592091  0.04846869     0.33400
H236        H  0.50793164  0.04282827  0.00734150     0.36200
H237        H  0.56251650  0.19358855  0.17874190     0.28800
H238        H  0.48540813  0.28306048  0.99890470     0.41700
H239        H  0.55552827  0.18409204  0.86744178     0.31800
H240        H  0.62286501  0.22551175  0.98323022     0.39400
H241        H  0.44567283  0.09863855  0.04634786     0.31200
H242        H  0.50834879  0.10212134  0.87041050     0.31300
H243        H  0.57600900  0.03907852  0.02643326     0.31500
C244        C  0.17308624  0.18233646  0.85106636     0.03700
C245        C  0.15469159  0.16075885  0.81361465    -0.12500
C246        C  0.17538414  0.14229753  0.79597815     0.01200
C247        C  0.21447225  0.14548881  0.81584536    -0.11000
C248        C  0.23311599  0.16674417  0.85329229     0.03600
C249        C  0.21233564  0.18532267  0.87065735    -0.10400
H250        H  0.12442794  0.15808308  0.79850128     0.09200
H251        H  0.23046388  0.13086803  0.80259293     0.06800
H252        H  0.22674851  0.20150667  0.89994606     0.06600
C253        C  0.67385713  0.02004700  0.86293826     0.03700
C254        C  0.65112842  0.32313120  0.82814697    -0.12500
C255        C  0.66838084  0.30384587  0.80690750     0.01200
C256        C  0.70751306  0.30345315  0.82483070    -0.11000
C257        C  0.73101477  0.99722892  0.86382731     0.03600
C258        C  0.71311702  0.01843975  0.88242839    -0.10400
H259        H  0.62080763  0.32373552  0.81400148     0.09200
H260        H  0.72091295  0.28866603  0.80844395     0.06800
H261        H  0.72969564  0.03340525  0.91224954     0.06600
C262        C  0.38748901  0.30547265  0.15498358     0.03700
C263        C  0.34820565  0.30480254  0.13509460    -0.12500
C264        C  0.32873654  0.32282529  0.15446548     0.01200
C265        C  0.34873315  0.34188890  0.19370411    -0.11000
C266        C  0.38808321  0.34290138  0.21346955     0.03600
C267        C  0.40732499  0.32455485  0.19412377    -0.10400
H268        H  0.33280726  0.29002380  0.10476025     0.09200
H269        H  0.33667277  0.02328648  0.20732624     0.06800
H270        H  0.43771704  0.32522349  0.20943849     0.06600
Zr271      Zr  0.08338443  0.26848697  0.03239926     2.17500
O272        O  0.09790023  0.20642477  0.04346780    -0.50800
O273        O  0.14873450  0.28718558  0.06335703    -0.74000
O274        O  0.10058648  0.24663320  0.97556199    -0.80800
O275        O  0.07190813  0.27086615  0.13967383    -0.82500
O276        O  0.07122960  0.28018059  0.91403346    -0.78200
O277        O  0.10317601  0.24362386  0.10612458    -0.89800
O278        O  0.15294183  0.01753481  0.06570803    -0.75800
O279        O  0.08461008  0.31971063  0.99285864    -0.85300
O280        O  0.08589425  0.31686648  0.07830240    -0.84900
O281        O  0.02665561  0.26589936  0.96384679    -0.71700
O282        O  0.02790973  0.26391533  0.04362370    -0.83800
Zr283      Zr  0.97780653  0.03715936  0.98010319     2.26400
Zr284      Zr  0.02751274  0.31857708  0.92540831     2.06300
Zr285      Zr  0.03018174  0.31354189  0.08840210     2.10000
Zr286      Zr  0.08960227  0.03957467  0.03683052     1.78800
O287        O  0.99718047  0.28121225  0.12286966    -0.92600
O288        O  0.11543263  0.06775807  0.99159243    -0.40400
O289        O  0.03444452  0.03917585  0.04835827    -0.77100
O290        O  0.03322871  0.03983511  0.96853397    -0.95800
O291        O  0.97177465  0.31473959  0.93531187    -0.89100
O292        O  0.97340720  0.31171373  0.02089746    -0.91900
C293        C  0.16622070  0.31671027  0.07150360     1.01800
C294        C  0.09570058  0.24861953  0.13911213     1.14800
C295        C  0.09389196  0.25564674  0.93591438     1.05500
O296        O  0.06531754  0.01909624  0.89252241    -0.94100
O297        O  0.98924668  0.03201684  0.87252760    -0.89800
O298        O  0.95932873  0.06148961  0.90613043    -0.83000
C299        C  0.96660223  0.05557326  0.87314631     1.12200
O300        O  0.97965124  0.20057210  0.97180686    -0.96000
Zr301      Zr  0.97143882  0.26346955  0.97524532     1.88900
O302        O  0.91197681  0.02076218  0.94613191    -0.72700
O303        O  0.99021320  0.28490309  0.85836327    -0.52000
O304        O  0.93728465  0.24109700  0.89985727    -0.96600
O305        O  0.94711861  0.22935074  0.01794423    -0.53900
O306        O  0.90734979  0.28382764  0.94679762    -0.73200
C307        C  0.89163023  0.31392536  0.93839027     0.99100
O308        O  0.96630597  0.09972975  0.97997335    -0.62000
O309        O  0.07259332  0.02436024  0.15132825    -0.56800
O310        O  0.96020548  0.05922987  0.03640076    -0.93500
O311        O  0.99024310  0.02750877  0.09961793    -0.91900
O312        O  0.12350786  0.06531892  0.11045553    -0.92300
O313        O  0.08321262  0.10289485  0.03809099    -0.91100
C314        C  0.96737909  0.05142341  0.07658645     1.18000
H315        H  0.10803671  0.31608040  0.10647686     0.33900
H316        H  0.03321867  0.06075576  0.95248813     0.44800
H317        H  0.95208739  0.31135887  0.02713406     0.38300
H318        H  0.02687398  0.24553369  0.94694240     0.34800
H319        H  0.14087206  0.07559375  0.01297180     0.26600
H320        H  0.00536185  0.28456967  0.84172895     0.32500
H321        H  0.92861678  0.26217455  0.88097421     0.38400
H322        H  0.14636913  0.07589488  0.11067649     0.32900
H323        H  0.06484719  0.04870074  0.14161630     0.31700
H324        H  0.99721202  0.25653118  0.11387867     0.33400
H325        H  0.92286982  0.21974491  0.99561474     0.32400
H326        H  0.06388321  0.10898930  0.00805118     0.36400
H327        H  0.98483833  0.11100532  0.97192862     0.29100
H328        H  0.12059293  0.20304944  0.03898937     0.33400
H329        H  0.00485651  0.19592711  0.99612274     0.36200
H330        H  0.06357727  0.01978998  0.17388590     0.28800
H331        H  0.94165210  0.10370311  0.95432540     0.41700
H332        H  0.05468516  0.01038015  0.86159219     0.31800
H333        H  0.11963166  0.04834528  0.97489337     0.39400
H334        H  0.94029575  0.24688710  0.03466638     0.31200
H335        H  0.99084300  0.26048306  0.86849024     0.31300
H336        H  0.07727915  0.19469745  0.01799631     0.31500
C337        C  0.20788084  0.31657028  0.09124766    -0.04800
C338        C  0.22917704  0.00620184  0.07411661    -0.01900
C339        C  0.26866052  0.00745592  0.09489051     0.03100
C340        C  0.28717729  0.32134944  0.13339943    -0.04800
C341        C  0.26848161  0.29968591  0.15121877    -0.01900
C342        C  0.22896091  0.29747955  0.13045745     0.03100
C343        C  0.20898473  0.02396511  0.03214783     0.37700
C344        C  0.29002911  0.27972431  0.19108439     0.37700
C345        C  0.21009151  0.27631679  0.15032012     0.36100
C346        C  0.28853228  0.02928779  0.07686590     0.36100
N347        N  0.19515440  0.25940743  0.16627117    -0.38700
N348        N  0.30465953  0.04675150  0.06295234    -0.38700
N349        N  0.30730586  0.26387802  0.22291616    -0.38100
N350        N  0.19381213  0.03789872  0.99832795    -0.38100
C351        C  0.77086157  0.31963335  0.88305434    -0.04800
C352        C  0.79162485  0.01186678  0.86161907    -0.01900
C353        C  0.83117442  0.01181043  0.88093999     0.03100
C354        C  0.84989010  0.31509833  0.91840916    -0.04800
C355        C  0.82983074  0.29304542  0.93442506    -0.01900
C356        C  0.79040068  0.29454549  0.91566679     0.03100
C357        C  0.77025563  0.02770442  0.81849522     0.37700
C358        C  0.84938178  0.27023300  0.97202585     0.37700
C359        C  0.76979007  0.27020664  0.92993970     0.36100
C360        C  0.85032831  0.02988871  0.85894498     0.36100
N361        N  0.75337206  0.25064296  0.94110679    -0.38700
N362        N  0.86557886  0.04472748  0.84167097    -0.38700
N363        N  0.86398806  0.25215229  0.00239764    -0.38100
N364        N  0.75273343  0.03970889  0.78384461    -0.38100
C365        C  0.11383357  0.23662134  0.91372838    -0.04800
C366        C  0.11644725  0.19954598  0.91522016    -0.01900
C367        C  0.13515351  0.18188494  0.89403728     0.03100
C368        C  0.15153969  0.20090255  0.87115396    -0.04800
C369        C  0.14879953  0.23772686  0.86917923    -0.01900
C370        C  0.13041610  0.25553395  0.89062962     0.03100
C371        C  0.09962446  0.17904366  0.93795383     0.37700
C372        C  0.16474296  0.25730917  0.84464237     0.37700
C373        C  0.13044811  0.29352309  0.89072055     0.36100
C374        C  0.13817099  0.14397963  0.89643949     0.36100
N375        N  0.13089124  0.32382965  0.89091924    -0.38700
N376        N  0.14060634  0.11377624  0.89820707    -0.38700
N377        N  0.17741133  0.27280360  0.82494578    -0.38100
N378        N  0.08667158  0.16176109  0.95584957    -0.38100
C379        C  0.27472156  0.16753513  0.87579143    -0.04800
C380        C  0.29501406  0.18092154  0.85371195    -0.01900
C381        C  0.33450890  0.17983541  0.87435095     0.03100
C382        C  0.35386059  0.16488651  0.91685471    -0.04800
C383        C  0.33362064  0.15192259  0.93910676    -0.01900
C384        C  0.29419389  0.15314847  0.91862440     0.03100
C385        C  0.27532305  0.19587918  0.80975200     0.37700
C386        C  0.35335935  0.13803808  0.98363524     0.37700
C387        C  0.27368365  0.13853028  0.94121661     0.36100
C388        C  0.35507772  0.19359480  0.85139680     0.36100
N389        N  0.25746981  0.12684592  0.95938266    -0.38700
N390        N  0.37108739  0.20484030  0.83276861    -0.38700
N391        N  0.36883309  0.12701744  0.01919007    -0.38100
N392        N  0.25983528  0.20769950  0.77461864    -0.38100
C393        C  0.65511204  0.04038459  0.88477527    -0.04800
C394        C  0.65663889  0.07733806  0.88561181    -0.01900
C395        C  0.63913386  0.09634568  0.90704596     0.03100
C396        C  0.61950886  0.07842526  0.92720907    -0.04800
C397        C  0.61840807  0.04139351  0.92665233    -0.01900
C398        C  0.63621972  0.02251975  0.90562080     0.03100
C399        C  0.67550394  0.09580156  0.86353270     0.37700
C400        C  0.59787256  0.02234751  0.94621607     0.37700
C401        C  0.63525213  0.98450141  0.90559631     0.36100
C402        C  0.64224563  0.13429943  0.90930270     0.36100
N403        N  0.63442061  0.95420166  0.90545631    -0.38700
N404        N  0.64490196  0.16453245  0.91115531    -0.38700
N405        N  0.58163077  0.00645021  0.96140524    -0.38100
N406        N  0.69042886  0.11054593  0.84579574    -0.38100
C407        C  0.40798738  0.28548703  0.13515921    -0.04800
C408        C  0.42929632  0.30322057  0.11726550    -0.01900
C409        C  0.44836070  0.28409829  0.09788940     0.03100
C410        C  0.44619771  0.24707756  0.09633802    -0.04800
C411        C  0.42542921  0.22940722  0.11517795    -0.01900
C412        C  0.40658218  0.24857268  0.13472507     0.03100
C413        C  0.43187570  0.34120339  0.11918393     0.37700
C414        C  0.42298798  0.19144997  0.11409763     0.37700
C415        C  0.38675406  0.23032109  0.15584471     0.36100
C416        C  0.47155780  0.30273213  0.08161472     0.36100
N417        N  0.37107023  0.21598170  0.17296919    -0.38700
N418        N  0.49007418  0.31838518  0.06932487    -0.38700
N419        N  0.42105384  0.16118700  0.11350326    -0.38100
N420        N  0.44043281  0.03180691  0.12031674    -0.38100
C421        C  0.71074290  0.15548303  0.09852941    -0.04800
C422        C  0.73020743  0.13363960  0.13569204    -0.01900
C423        C  0.76958665  0.13060480  0.15413504     0.03100
C424        C  0.79002935  0.14996938  0.13640926    -0.04800
C425        C  0.77083538  0.17213117  0.09984212    -0.01900
C426        C  0.73134570  0.17437637  0.08040961     0.03100
C427        C  0.71007435  0.11546310  0.15648944     0.37700
C428        C  0.79197680  0.19373121  0.08333589     0.37700
C429        C  0.71208394  0.19551270  0.04105452     0.36100
C430        C  0.78915288  0.10784675  0.19185099     0.36100
N431        N  0.69715871  0.21233030  0.00951384    -0.38700
N432        N  0.80452332  0.08964963  0.22193975    -0.38700
N433        N  0.80899445  0.21119297  0.07063306    -0.38100
N434        N  0.69425484  0.10107441  0.17341561    -0.38100
C435        C  0.94814322  0.07169704  0.09821693    -0.04800
C436        C  0.95012427  0.10871613  0.09941592    -0.01900
C437        C  0.93153601  0.12808916  0.11934036     0.03100
C438        C  0.91122508  0.11066102  0.13887114    -0.04800
C439        C  0.91021680  0.07368867  0.13897693    -0.01900
C440        C  0.92832773  0.05426036  0.11851821     0.03100
C441        C  0.97235132  0.12697828  0.08142859     0.37700
C442        C  0.89112158  0.05564764  0.16111188     0.37700
C443        C  0.92569968  0.01631893  0.11767334     0.36100
C444        C  0.93279218  0.16605797  0.11897884     0.36100
N445        N  0.91482450  0.31216923  0.10828475    -0.38700
N446        N  0.93384769  0.19634346  0.11849190    -0.38700
N447        N  0.87598349  0.04150638  0.17902870    -0.38100
N448        N  0.99019275  0.14160268  0.06729928    -0.38100
C449        C  0.41456213  0.28546399  0.75530964    -0.04800
C450        C  0.43214669  0.30279880  0.79656252    -0.01900
C451        C  0.44975173  0.28336100  0.83603367     0.03100
C452        C  0.44939327  0.24627928  0.83455841    -0.04800
C453        C  0.43148484  0.22900421  0.79296487    -0.01900
C454        C  0.41451541  0.24856764  0.75352959     0.03100
C455        C  0.43107163  0.34074834  0.79835856     0.37700
C456        C  0.42840890  0.19107825  0.79057805     0.37700
C457        C  0.39686943  0.23071713  0.71097597     0.36100
C458        C  0.46850066  0.30186691  0.87791919     0.36100
N459        N  0.38285231  0.21647215  0.67706756    -0.38700
N460        N  0.48311628  0.31726105  0.91091652    -0.38700
N461        N  0.42520608  0.16089843  0.78817823    -0.38100
N462        N  0.42229599  0.03208332  0.79995387    -0.38100
C463        C  0.21382428  0.31935373  0.59598457    -0.04800
C464        C  0.23388232  0.30134154  0.57665087    -0.01900
C465        C  0.27339881  0.30406035  0.59559551     0.03100
C466        C  0.29320538  0.32438671  0.63419532    -0.04800
C467        C  0.27185666  0.00247746  0.65123112    -0.01900
C468        C  0.23242154  0.00301289  0.63190269     0.03100
C469        C  0.21418209  0.27983805  0.53739131     0.37700
C470        C  0.29366320  0.02171904  0.69200185     0.37700
C471        C  0.21389301  0.02449132  0.65165808     0.36100
C472        C  0.29384948  0.28524362  0.57595295     0.36100
N473        N  0.19919982  0.04198807  0.66714252    -0.38700
N474        N  0.31016100  0.27019057  0.56034269    -0.38700
N475        N  0.31135822  0.03657376  0.72479770    -0.38100
N476        N  0.19904717  0.26226469  0.50634404    -0.38100
C477        C  0.12080967  0.07481133  0.68174878    -0.04800
C478        C  0.14208934  0.06024289  0.72419851    -0.01900
C479        C  0.16029008  0.08233660  0.76146004     0.03100
C480        C  0.15631686  0.11903528  0.75679188    -0.04800
C481        C  0.13464097  0.13359022  0.71464123    -0.01900
C482        C  0.11687437  0.11158814  0.67726269     0.03100
C483        C  0.14526313  0.02254566  0.72973988     0.37700
C484        C  0.13110136  0.17134521  0.70983550     0.37700
C485        C  0.09279645  0.12680529  0.63463450     0.36100
C486        C  0.18294578  0.06735800  0.80479258     0.36100
N487        N  0.07324614  0.13910497  0.60086142    -0.38700
N488        N  0.20124032  0.05565428  0.83941661    -0.38700
N489        N  0.12855715  0.20149328  0.70659572    -0.38100
N490        N  0.14765899  0.99250444  0.73456758    -0.38100
C491        C  0.91153050  0.19033044  0.25807049    -0.04800
C492        C  0.91081159  0.22720015  0.25503605    -0.01900
C493        C  0.92839342  0.24795307  0.29364532     0.03100
C494        C  0.94705825  0.23198440  0.33576855    -0.04800
C495        C  0.94853017  0.19501294  0.33857156    -0.01900
C496        C  0.93044598  0.17427967  0.29991644     0.03100
C497        C  0.89213064  0.24380137  0.21193977     0.37700
C498        C  0.97034739  0.17825178  0.38088818     0.37700
C499        C  0.93073999  0.13639258  0.30326841     0.36100
C500        C  0.92668435  0.28581627  0.28978092     0.36100
N501        N  0.93086822  0.10617656  0.30599680    -0.38700
N502        N  0.92510177  0.31597983  0.28626366    -0.38700
N503        N  0.98814989  0.16487742  0.41453927    -0.38100
N504        N  0.87723560  0.25695777  0.17754842    -0.38100
C505        C  0.77745407  0.32153208  0.38874045    -0.04800
C506        C  0.79889140  0.33346849  0.43280314    -0.01900
C507        C  0.83839706  0.33423564  0.45140848     0.03100
C508        C  0.85664697  0.32307015  0.42618606    -0.04800
C509        C  0.83538435  0.31097312  0.38240292    -0.01900
C510        C  0.79596701  0.30958837  0.36399105     0.03100
C511        C  0.77920898  0.03142297  0.44743818     0.37700
C512        C  0.85412609  0.30137154  0.35568349     0.37700
C513        C  0.77454763  0.29487084  0.32000503     0.36100
C514        C  0.85894289  0.02592722  0.48778034     0.36100
N515        N  0.75751459  0.28293009  0.28503375    -0.38700
N516        N  0.87662697  0.03858391  0.52215878    -0.38700
N517        N  0.86929666  0.29413485  0.33449628    -0.38100
N518        N  0.76464000  0.04743746  0.46441510    -0.38100
C519        C  0.61524174  0.07575771  0.18812022    -0.04800
C520        C  0.61599836  0.03873354  0.18607733    -0.01900
C521        C  0.63492768  0.01906003  0.22515167     0.03100
C522        C  0.65405676  0.03619053  0.26638055    -0.04800
C523        C  0.65344420  0.07302558  0.26864282    -0.01900
C524        C  0.63345283  0.09273215  0.22986854     0.03100
C525        C  0.59599771  0.02054825  0.14412580     0.37700
C526        C  0.67325544  0.09061408  0.31113133     0.37700
C527        C  0.63199561  0.13049834  0.23335063     0.36100
C528        C  0.64249734  0.31037958  0.22403428     0.36100
N529        N  0.63082261  0.16054332  0.23695482    -0.38700
N530        N  0.64594993  0.28052263  0.22142960    -0.38700
N531        N  0.68924007  0.10450586  0.34505592    -0.38100
N532        N  0.58007082  0.00559409  0.11098281    -0.38100
C533        C  0.11620875  0.22738721  0.17977810    -0.04800
C534        C  0.11781454  0.19048901  0.17694560    -0.01900
C535        C  0.13742486  0.17049175  0.21555525     0.03100
C536        C  0.15446659  0.18703511  0.25736522    -0.04800
C537        C  0.15264897  0.22370010  0.26049928    -0.01900
C538        C  0.13411649  0.24390675  0.22187277     0.03100
C539        C  0.09790541  0.17270136  0.13472117     0.37700
C540        C  0.16962407  0.24053919  0.30375200     0.37700
C541        C  0.13487801  0.28177622  0.22575749     0.36100
C542        C  0.14036563  0.13283656  0.21232670     0.36100
N543        N  0.13617637  0.31192524  0.22977208    -0.38700
N544        N  0.14286743  0.10282638  0.20983135    -0.38700
N545        N  0.18311373  0.25371220  0.33837130    -0.38100
N546        N  0.08183221  0.15802758  0.10140248    -0.38100
C547        C  0.15295260  0.10788170  0.37521181    -0.04800
C548        C  0.13487277  0.12535428  0.39714098    -0.01900
C549        C  0.11689651  0.10596941  0.41797746     0.03100
C550        C  0.11689660  0.06891045  0.41704562    -0.04800
C551        C  0.13483857  0.05150663  0.39472034    -0.01900
C552        C  0.15254939  0.07095486  0.37364683     0.03100
C553        C  0.13535420  0.16334511  0.39889305     0.37700
C554        C  0.13649652  0.01356427  0.39491219     0.37700
C555        C  0.17028635  0.05306314  0.35002414     0.36100
C556        C  0.09767198  0.12430073  0.43948448     0.36100
N557        N  0.18448091  0.03913278  0.33102709    -0.38700
N558        N  0.08231104  0.13907095  0.45650028    -0.38700
N559        N  0.13811353  0.98331280  0.39519534    -0.38100
N560        N  0.13579144  0.19364047  0.40023575    -0.38100
C561        C  0.35435264  0.14852299  0.42310701    -0.04800
C562        C  0.33399089  0.16705167  0.44165106    -0.01900
C563        C  0.29442232  0.16653497  0.42047826     0.03100
C564        C  0.27486162  0.14754468  0.38071951    -0.04800
C565        C  0.29495709  0.12938357  0.36184317    -0.01900
C566        C  0.33451623  0.12960979  0.38305045     0.03100
C567        C  0.35348976  0.18652179  0.48274535     0.37700
C568        C  0.27480291  0.11101976  0.31997988     0.37700
C569        C  0.35457872  0.11164770  0.36226738     0.36100
C570        C  0.27371422  0.18669018  0.43866980     0.36100
N571        N  0.37023131  0.09726499  0.34531631    -0.38700
N572        N  0.25714400  0.20291265  0.45293758    -0.38700
N573        N  0.25863027  0.09672401  0.28637536    -0.38100
N574        N  0.36852539  0.20229240  0.51540662    -0.38100
C575        C  0.61306634  0.24235769  0.68718808    -0.04800
C576        C  0.61134321  0.27944867  0.68535309    -0.01900
C577        C  0.62818834  0.29962042  0.72467381     0.03100
C578        C  0.64616719  0.28299515  0.76615868    -0.04800
C579        C  0.64661378  0.24610364  0.76832767    -0.01900
C580        C  0.63101430  0.22587675  0.72908292     0.03100
C581        C  0.59170919  0.29723755  0.64334021     0.37700
C582        C  0.66328971  0.22901649  0.81123169     0.37700
C583        C  0.63569739  0.18816834  0.73188296     0.36100
C584        C  0.62773220  0.33759580  0.72247046     0.36100
N585        N  0.63995838  0.15815801  0.73410655    -0.38700
N586        N  0.62517384  0.04290543  0.71957214    -0.38700
N587        N  0.67640065  0.21564286  0.84558889    -0.38100
N588        N  0.57612800  0.31232153  0.61044970    -0.38100
C589        C  0.41187665  0.02957872  0.25271063    -0.04800
C590        C  0.41182837  0.06653666  0.25230704    -0.01900
C591        C  0.43043281  0.08553192  0.29233726     0.03100
C592        C  0.45033730  0.06773947  0.33299073    -0.04800
C593        C  0.45057906  0.03067694  0.33308077    -0.01900
C594        C  0.43075552  0.01173461  0.29325962     0.03100
C595        C  0.39219067  0.08501733  0.21068255     0.37700
C596        C  0.47166001  0.01178327  0.37390563     0.37700
C597        C  0.43517394  0.30995693  0.29690737     0.36100
C598        C  0.42720436  0.12336516  0.29190564     0.36100
N599        N  0.43765133  0.27975764  0.29868574    -0.38700
N600        N  0.42420141  0.15349619  0.29157800    -0.38700
N601        N  0.48838026  0.99623549  0.40614737    -0.38100
N602        N  0.37648229  0.09972993  0.17749609    -0.38100
C603        C  0.44774959  0.06613072  0.59630661    -0.04800
C604        C  0.44948384  0.02911032  0.59691011    -0.01900
C605        C  0.43028993  0.00928624  0.61586620     0.03100
C606        C  0.41088787  0.02621441  0.63654999    -0.04800
C607        C  0.40976615  0.06314645  0.63696919    -0.01900
C608        C  0.42739607  0.08302322  0.61610043     0.03100
C609        C  0.47212849  0.01119244  0.57961167     0.37700
C610        C  0.39063589  0.08066919  0.65920512     0.37700
C611        C  0.42329922  0.12080976  0.61356332     0.36100
C612        C  0.42941046  0.97134584  0.61280793     0.36100
N613        N  0.41979225  0.15091205  0.61123857    -0.38700
N614        N  0.42823326  0.94111130  0.60999243    -0.38700
N615        N  0.37551047  0.09454197  0.67716263    -0.38100
N616        N  0.49033760  0.99645424  0.56634972    -0.38100
C617        C  0.65621026  0.28205669  0.38596188    -0.04800
C618        C  0.65498819  0.24521339  0.38274613    -0.01900
C619        C  0.63596770  0.22534074  0.40189026     0.03100
C620        C  0.61858787  0.24215657  0.42538083    -0.04800
C621        C  0.62005230  0.27922353  0.42859854    -0.01900
C622        C  0.63839050  0.29901847  0.40851792     0.03100
C623        C  0.67298187  0.22775775  0.35910383     0.37700
C624        C  0.60146107  0.29748802  0.45088700     0.37700
C625        C  0.63878541  0.33700824  0.41086432     0.36100
C626        C  0.63505227  0.18748154  0.39781526     0.36100
N627        N  0.63882155  0.36729121  0.41236360    -0.38700
N628        N  0.63448737  0.15733869  0.39397312    -0.38700
N629        N  0.58678037  0.31286096  0.46824539    -0.38100
N630        N  0.68742728  0.21394325  0.34031550    -0.38100
C631        C  0.71162276  0.16398422  0.60256794    -0.04800
C632        C  0.73132462  0.15140624  0.57956632    -0.01900
C633        C  0.77076920  0.15334457  0.59929853     0.03100
C634        C  0.79067205  0.16883052  0.64155509    -0.04800
C635        C  0.77098513  0.18264147  0.66388272    -0.01900
C636        C  0.73155296  0.18002229  0.64459461     0.03100
C637        C  0.71095390  0.13727483  0.53507878     0.37700
C638        C  0.79140379  0.19948410  0.70677786     0.37700
C639        C  0.71173392  0.19279192  0.66878880     0.36100
C640        C  0.79107261  0.13820835  0.57692288     0.36100
N641        N  0.69626018  0.20298331  0.68846660    -0.38700
N642        N  0.80765375  0.12609573  0.55959700    -0.38700
N643        N  0.80779238  0.21287613  0.74097469    -0.38100
N644        N  0.69467028  0.12623964  0.49948305    -0.38100
C645        C  0.91019102  0.12161093  0.75827514    -0.04800
C646        C  0.90572599  0.08483734  0.75397598    -0.01900
C647        C  0.92460627  0.06309076  0.79123939     0.03100
C648        C  0.94782397  0.07804759  0.83319188    -0.04800
C649        C  0.95234837  0.11486963  0.83713427    -0.01900
C650        C  0.93297969  0.13651667  0.80009569     0.03100
C651        C  0.88117691  0.06949937  0.71124536     0.37700
C652        C  0.97827594  0.13067291  0.87880263     0.37700
C653        C  0.93505146  0.17432238  0.80533022     0.36100
C654        C  0.91932330  0.02541862  0.78641932     0.36100
N655        N  0.93608847  0.20448250  0.80915212    -0.38700
N656        N  0.91485565  0.99540860  0.78211790    -0.38700
N657        N  0.99926510  0.14380616  0.91152417    -0.38100
N658        N  0.86121788  0.05763693  0.67710286    -0.38100
C659        C  0.94986209  0.24290671  0.60240982    -0.04800
C660        C  0.95013092  0.20584919  0.60343259    -0.01900
C661        C  0.93111109  0.18739399  0.62374662     0.03100
C662        C  0.91249395  0.20572099  0.64441143    -0.04800
C663        C  0.91319760  0.24270367  0.64481023    -0.01900
C664        C  0.93191497  0.26123878  0.62412594     0.03100
C665        C  0.97218300  0.18649441  0.58647187     0.37700
C666        C  0.89504872  0.26169503  0.66715475     0.37700
C667        C  0.93273634  0.29921509  0.62563250     0.36100
C668        C  0.93026401  0.14937760  0.62284228     0.36100
N669        N  0.93349721  0.32948498  0.62765746    -0.38700
N670        N  0.92954389  0.11907116  0.62223044    -0.38700
N671        N  0.88048221  0.27669754  0.68495134    -0.38100
N672        N  0.99018908  0.17054156  0.57398200    -0.38100
C673        C  0.89195045  0.51285560  0.66318980     0.03700
C674        C  0.85269007  0.51407862  0.64305711    -0.12500
C675        C  0.83237180  0.49620351  0.66168524     0.01200
C676        C  0.85135539  0.47691132  0.70065819    -0.11000
C677        C  0.89066468  0.47527238  0.72110617     0.03600
C678        C  0.91090031  0.49347887  0.70235024    -0.10400
H679        H  0.83791394  0.52855139  0.61253759     0.09200
H680        H  0.83552087  0.46263655  0.71460262     0.06800
H681        H  0.94122261  0.49201314  0.71766037     0.06600
Zr682      Zr  0.47940160  0.44308246  0.47832392     2.17500
O683        O  0.46941110  0.38005159  0.46788865    -0.50800
O684        O  0.41348909  0.45772503  0.44704122    -0.74000
O685        O  0.46256034  0.41853070  0.53413721    -0.80800
O686        O  0.48932298  0.45128678  0.37101744    -0.82500
O687        O  0.49231459  0.45073655  0.59725636    -0.78200
O688        O  0.46070455  0.41933044  0.40454620    -0.89800
O689        O  0.40926354  0.51703203  0.44793466    -0.75800
O690        O  0.47704733  0.49216874  0.52045969    -0.85300
O691        O  0.47397133  0.49361376  0.43426761    -0.84900
O692        O  0.53676942  0.44086067  0.54579780    -0.71700
O693        O  0.53352412  0.44322191  0.46440051    -0.83800
Zr694      Zr  0.58554786  0.54205063  0.53267772     2.26400
Zr695      Zr  0.53470030  0.49137351  0.58669691     2.06300
Zr696      Zr  0.52906393  0.49528884  0.42281389     2.10000
Zr697      Zr  0.47248108  0.54240295  0.47697855     1.78800
O698        O  0.55701348  0.46801870  0.37944342    -0.92600
O699        O  0.44460641  0.57008265  0.52020495    -0.40400
O700        O  0.52781478  0.54486647  0.46542681    -0.77100
O701        O  0.53006807  0.54310280  0.54428767    -0.95800
O702        O  0.58983075  0.49114906  0.57545136    -0.89100
O703        O  0.58677032  0.49330743  0.48920973    -0.91900
C704        C  0.39464150  0.48610251  0.43948203     1.01800
C705        C  0.46748964  0.42661390  0.37158582     1.14800
C706        C  0.46970871  0.42629060  0.57429677     1.05500
O707        O  0.50268699  0.52204897  0.62310976    -0.94100
O708        O  0.57543832  0.53399418  0.63974246    -0.89800
O709        O  0.60386621  0.56665763  0.60678312    -0.83000
C710        C  0.59733433  0.55883417  0.63988008     1.12200
O711        O  0.58227793  0.37944664  0.53275382    -0.96000
Zr712      Zr  0.59053581  0.44261204  0.53148657     1.88900
O713        O  0.65127699  0.52497290  0.56680361    -0.72700
O714        O  0.57282674  0.45707328  0.65212280    -0.52000
O715        O  0.63142873  0.41422178  0.60079536    -0.96600
O716        O  0.60990396  0.41629692  0.47914826    -0.53900
O717        O  0.65382115  0.46588443  0.56223674    -0.73200
C718        C  0.66940691  0.49618120  0.57304686     0.99100
O719        O  0.59985610  0.60432571  0.53383961    -0.62000
O720        O  0.49077640  0.53378692  0.36210897    -0.56800
O721        O  0.60329451  0.56554937  0.47744071    -0.93500
O722        O  0.57254384  0.53508078  0.41295063    -0.91900
O723        O  0.44327363  0.56893379  0.40371780    -0.92300
O724        O  0.47553766  0.60614248  0.47984169    -0.91100
C725        C  0.59606703  0.55850656  0.43710366     1.18000
H726        H  0.45154834  0.49245613  0.40640062     0.33900
H727        H  0.53023148  0.56373270  0.56092979     0.44800
H728        H  0.60790599  0.49460277  0.48263445     0.38300
H729        H  0.53746250  0.41974838  0.56193906     0.34800
H730        H  0.42067541  0.57992960  0.49796121     0.26600
H731        H  0.56351342  0.46335967  0.67394589     0.32500
H732        H  0.61805549  0.41616468  0.61937996     0.38400
H733        H  0.41608389  0.56435029  0.39257006     0.32900
H734        H  0.49506584  0.52578194  0.33680485     0.31700
H735        H  0.57049421  0.44745748  0.39700883     0.33400
H736        H  0.63018602  0.39997424  0.49711806     0.32400
H737        H  0.49844656  0.61215317  0.47667880     0.36400
H738        H  0.58022962  0.61624448  0.53908368     0.29100
H739        H  0.44625442  0.37477446  0.47082922     0.33400
H740        H  0.55710783  0.37474961  0.50819779     0.36200
H741        H  0.46458177  0.52683334  0.35411845     0.28800
H742        H  0.62346258  0.60836392  0.56112096     0.41700
H743        H  0.49307792  0.54365269  0.60559841     0.31800
H744        H  0.43694820  0.55030902  0.53341001     0.39400
H745        H  0.62271641  0.43533195  0.47115324     0.31200
H746        H  0.56457992  0.43248327  0.64394052     0.31300
H747        H  0.48996599  0.36967338  0.49436992     0.31500
C748        C  0.17261141  0.46003158  0.35079670     0.03700
C749        C  0.15293198  0.47979321  0.31233621    -0.12500
C750        C  0.17244095  0.49913159  0.29373487     0.01200
C751        C  0.21185244  0.49846276  0.31381631    -0.11000
C752        C  0.23167108  0.47881253  0.35239330     0.03600
C753        C  0.21188508  0.45949663  0.37055256    -0.10400
H754        H  0.12257694  0.48060337  0.29739647     0.09200
H755        H  0.22707087  0.51381604  0.29999447     0.06800
H756        H  0.22708793  0.44457101  0.40058734     0.06600
C757        C  0.67922398  0.63790754  0.36270112     0.03700
C758        C  0.65995696  0.65779392  0.32428254    -0.12500
C759        C  0.67956724  0.67489388  0.30407515     0.01200
C760        C  0.71873782  0.67219994  0.32254248    -0.11000
C761        C  0.73832355  0.65262951  0.36127997     0.03600
C762        C  0.71837757  0.63549459  0.38108781    -0.10400
H763        H  0.62965401  0.65943049  0.30963246     0.09200
H764        H  0.73078364  0.35826823  0.31632768     0.06800
H765        H  0.73335339  0.62014287  0.41079791     0.06600
Zr766      Zr  0.98256715  0.59993253  0.48238246     2.17500
O767        O  0.96714269  0.53774192  0.47022532    -0.50800
O768        O  0.91778607  0.61910431  0.44997948    -0.74000
O769        O  0.96431598  0.57725096  0.53811396    -0.80800
O770        O  0.99059321  0.60770432  0.37318340    -0.82500
O771        O  0.99909015  0.60565474  0.60322093    -0.78200
O772        O  0.96380887  0.57553120  0.40855719    -0.89800
O773        O  0.91450561  0.35364892  0.45588504    -0.75800
O774        O  0.98464851  0.64882368  0.52731997    -0.85300
O775        O  0.97944357  0.65099755  0.44019402    -0.84900
O776        O  0.04084505  0.59439204  0.54849158    -0.71700
O777        O  0.03600883  0.59730408  0.46740123    -0.83800
Zr778      Zr  0.09043566  0.36871351  0.53533851     2.26400
Zr779      Zr  0.04300949  0.64440757  0.59242205     2.06300
Zr780      Zr  0.03326739  0.64923493  0.42652238     2.10000
Zr781      Zr  0.97820018  0.37465284  0.47981699     1.78800
O782        O  0.06659017  0.61564322  0.39412276    -0.92600
O783        O  0.95778888  0.40783006  0.52685534    -0.40400
O784        O  0.03305498  0.37216340  0.46754250    -0.77100
O785        O  0.03535823  0.37414198  0.54710211    -0.95800
O786        O  0.09727023  0.64285278  0.57903596    -0.89100
O787        O  0.09149792  0.64531721  0.49170731    -0.91900
C788        C  0.90105178  0.64855024  0.44488057     1.01800
C789        C  0.96939642  0.58279493  0.37468309     1.14800
C790        C  0.97339148  0.58378477  0.57914867     1.05500
O791        O  0.00516232  0.35868210  0.62385297    -0.94100
O792        O  0.07913632  0.36705317  0.64268827    -0.89800
O793        O  0.10789100  0.39655889  0.60756374    -0.83000
C794        C  0.10095440  0.39132389  0.64092842     1.12200
O795        O  0.08340170  0.53114866  0.52880876    -0.96000
Zr796      Zr  0.09429115  0.59422596  0.53317090     1.88900
O797        O  0.15498304  0.34793810  0.56890085    -0.72700
O798        O  0.08142154  0.60757653  0.65498330    -0.52000
O799        O  0.12919005  0.56413334  0.60325738    -0.96600
O800        O  0.11732070  0.56893836  0.48354177    -0.53900
O801        O  0.15877450  0.61455377  0.56139233    -0.73200
C802        C  0.17476704  0.64475215  0.57096073     0.99100
O803        O  0.11053051  0.42949783  0.53798586    -0.62000
O804        O  0.99357062  0.35263967  0.35958361    -0.56800
O805        O  0.10692719  0.39110965  0.47862650    -0.93500
O806        O  0.07370005  0.36044652  0.41488849    -0.91900
O807        O  0.94062034  0.39781742  0.40587204    -0.92300
O808        O  0.98514297  0.43741598  0.47250854    -0.91100
C809        C  0.09796136  0.38374728  0.43789749     1.18000
H810        H  0.95680879  0.65119927  0.41259066     0.33900
H811        H  0.03638248  0.39538098  0.56301278     0.44800
H812        H  0.11201718  0.64598808  0.48395069     0.38300
H813        H  0.04065882  0.57316595  0.56394616     0.34800
H814        H  0.93103912  0.41293803  0.50770192     0.26600
H815        H  0.10745579  0.61561405  0.66373129     0.32500
H816        H  0.14178404  0.58303095  0.62512258     0.38400
H817        H  0.95816790  0.39984563  0.39249553     0.32900
H818        H  0.00142319  0.37740740  0.36687183     0.31700
H819        H  0.05414418  0.62164182  0.36223060     0.33400
H820        H  0.09488802  0.55868757  0.45870107     0.32400
H821        H  0.00740461  0.44438535  0.50002018     0.36400
H822        H  0.09279615  0.44339710  0.54464745     0.29100
H823        H  0.94381907  0.53436701  0.47344966     0.33400
H824        H  0.05652362  0.52820772  0.50796555     0.36200
H825        H  0.00345884  0.34582237  0.33846519     0.28800
H826        H  0.13497340  0.43170096  0.56462403     0.41700
H827        H  0.01753955  0.35259696  0.65572010     0.31800
H828        H  0.95733336  0.39063250  0.54856740     0.39400
H829        H  0.13248395  0.54852492  0.49956065     0.31200
H830        H  0.07588374  0.61555901  0.67938811     0.31300
H831        H  0.98692357  0.52597723  0.49617057     0.31500
C832        C  0.39403850  0.34598671  0.65798120     0.03700
C833        C  0.41562578  0.65478333  0.69895640    -0.12500
C834        C  0.39561706  0.63336942  0.71509513     0.01200
C835        C  0.35644301  0.63183934  0.69239626    -0.11000
C836        C  0.33491207  0.32555352  0.65551946     0.03600
C837        C  0.35454994  0.34562257  0.63760257    -0.10400
H838        H  0.44595633  0.65609262  0.71649616     0.09200
H839        H  0.34088186  0.61568446  0.70503224     0.06800
H840        H  0.33917649  0.36071394  0.60778211     0.06600
C841        C  0.88859730  0.45611193  0.16086045     0.03700
C842        C  0.84930910  0.45581505  0.14204754    -0.12500
C843        C  0.83069160  0.47479443  0.16173014     0.01200
C844        C  0.85132621  0.49444615  0.20014240    -0.11000
C845        C  0.89054562  0.49554218  0.21881692     0.03600
C846        C  0.90912367  0.47607580  0.19934689    -0.10400
H847        H  0.83318754  0.44109914  0.11185669     0.09200
H848        H  0.83682395  0.50948398  0.21497379     0.06800
H849        H  0.93947559  0.47676443  0.21384704     0.06600
Zr850      Zr  0.58361433  0.44028089  0.04322328     2.17500
O851        O  0.59465825  0.37769066  0.05521174    -0.50800
O852        O  0.64948043  0.45505782  0.07420444    -0.74000
O853        O  0.60146329  0.41392521  0.98925085    -0.80800
O854        O  0.57274060  0.45024420  0.14990620    -0.82500
O855        O  0.57510819  0.44593222  0.92600275    -0.78200
O856        O  0.60240856  0.41855364  0.11798406    -0.89800
O857        O  0.65521550  0.51423134  0.07282109    -0.75800
O858        O  0.58824040  0.48826825  0.00095718    -0.85300
O859        O  0.58933555  0.49186350  0.08590462    -0.84900
O860        O  0.52715006  0.43723959  0.97469790    -0.71700
O861        O  0.52818146  0.44121870  0.05452483    -0.83800
Zr862      Zr  0.48091728  0.54008129  0.98488272     2.26400
Zr863      Zr  0.53161624  0.48659666  0.93327013     2.06300
Zr864      Zr  0.53365643  0.49381653  0.09595633     2.10000
Zr865      Zr  0.59297582  0.53964395  0.04282587     1.78800
O866        O  0.49942891  0.46782043  0.13323500    -0.92600
O867        O  0.61906773  0.56393995  0.99562666    -0.40400
O868        O  0.53740694  0.54307513  0.05375117    -0.77100
O869        O  0.53678515  0.53936464  0.97440075    -0.95800
O870        O  0.47564556  0.48845959  0.94263668    -0.89100
O871        O  0.47688622  0.49215274  0.02802984    -0.91900
C872        C  0.66891180  0.48326666  0.08129610     1.01800
C873        C  0.59525697  0.42591537  0.15066112     1.14800
C874        C  0.59640867  0.42141473  0.94978688     1.05500
O875        O  0.56537884  0.51155116  0.89480803    -0.94100
O876        O  0.49330375  0.52975382  0.87941272    -0.89800
O877        O  0.46303979  0.56192471  0.91023660    -0.83000
C878        C  0.47081883  0.55415457  0.87813147     1.12200
O879        O  0.47579098  0.37717991  0.98907703    -0.96000
Zr880      Zr  0.47179776  0.44083093  0.98594072     1.88900
O881        O  0.41451182  0.52507857  0.94871314    -0.72700
O882        O  0.49171416  0.45033489  0.86991762    -0.52000
O883        O  0.43709521  0.41068647  0.91537493    -0.96600
O884        O  0.44551250  0.41569919  0.03254731    -0.53900
O885        O  0.40904353  0.46593732  0.95156107    -0.73200
C886        C  0.39505429  0.49671925  0.94087429     0.99100
O887        O  0.47268951  0.60308804  0.97414537    -0.62000
O888        O  0.57346563  0.52852416  0.16085275    -0.56800
O889        O  0.46187411  0.56619833  0.03783190    -0.93500
O890        O  0.49140681  0.53663018  0.10286207    -0.91900
O891        O  0.62585454  0.56854142  0.11461356    -0.92300
O892        O  0.59331861  0.60340753  0.03995594    -0.97500
C893        C  0.46853453  0.55995214  0.07815172     1.18000
H894        H  0.61134787  0.49119489  0.11418893     0.33900
H895        H  0.53750774  0.55953810  0.95757167     0.44800
H896        H  0.45526434  0.49420004  0.03369682     0.38300
H897        H  0.52646315  0.41561982  0.95932153     0.34800
H898        H  0.64497298  0.57111382  0.01630720     0.26600
H899        H  0.50877380  0.43973808  0.85918423     0.32500
H900        H  0.41354978  0.40261811  0.91574885     0.38400
H901        H  0.60578772  0.57801987  0.12115930     0.32900
H902        H  0.56418453  0.55277756  0.15348616     0.31700
H903        H  0.50863613  0.48050752  0.16185112     0.33400
H904        H  0.43311704  0.43544886  0.03951854     0.32400
H905        H  0.56707719  0.61009742  0.03165953     0.36400
H906        H  0.44826669  0.60841766  0.97377128     0.29100
H907        H  0.61898082  0.37323243  0.05486244     0.33400
H908        H  0.50287813  0.37232219  0.00623616     0.36200
H909        H  0.56580147  0.52123488  0.18383179     0.28800
H910        H  0.49178983  0.61370161  0.00190762     0.41700
H911        H  0.56826337  0.53674596  0.90264673     0.31800
H912        H  0.62214928  0.54350540  0.97951613     0.39400
H913        H  0.46750646  0.41058982  0.06103540     0.31200
H914        H  0.48358205  0.43049153  0.88250647     0.31300
H915        H  0.57558537  0.36629554  0.02805640     0.31500
C916        C  0.17260220  0.52530547  0.84932419     0.03700
C917        C  0.15330627  0.50459083  0.81097788    -0.12500
C918        C  0.17320238  0.48472309  0.79333296     0.01200
C919        C  0.21249464  0.48613006  0.81379334    -0.11000
C920        C  0.23212565  0.50673223  0.85173304     0.03600
C921        C  0.21205251  0.52633699  0.86926838    -0.10400
H922        H  0.12295385  0.50324839  0.79557921     0.09200
H923        H  0.22789183  0.47041789  0.80074314     0.06800
H924        H  0.22719304  0.54163413  0.89920236     0.06600
C925        C  0.67304299  0.34129128  0.86792710     0.03700
C926        C  0.65387324  0.65766474  0.82307617    -0.12500
C927        C  0.67259904  0.63811784  0.80383954     0.01200
C928        C  0.71187060  0.63791798  0.82385617    -0.11000
C929        C  0.72951070  0.32147053  0.86410902     0.03600
C930        C  0.71235196  0.34006039  0.88590202    -0.10400
H931        H  0.62349736  0.65818491  0.80733711     0.09200
H932        H  0.72643703  0.62318857  0.80884533     0.06800
H933        H  0.72956921  0.35349044  0.91678552     0.06600
C934        C  0.38936902  0.63763368  0.15917281     0.03700
C935        C  0.35005512  0.63713243  0.14057223    -0.12500
C936        C  0.33135235  0.65655472  0.15982612     0.01200
C937        C  0.35191291  0.67684614  0.19774033    -0.11000
C938        C  0.39117913  0.67786903  0.21669279     0.03600
C939        C  0.40983871  0.65805548  0.19746042    -0.10400
H940        H  0.33394778  0.62208308  0.11067136     0.09200
H941        H  0.33375323  0.35603592  0.20865879     0.06800
H942        H  0.44018925  0.65870278  0.21208995     0.06600
Zr943      Zr  0.08642958  0.61163965  0.03577913     2.17500
O944        O  0.10896929  0.55159711  0.04973238    -0.50800
O945        O  0.15097921  0.63117039  0.06784215    -0.74000
O946        O  0.10241950  0.58946143  0.97752380    -0.80800
O947        O  0.07444121  0.61299257  0.14314721    -0.82500
O948        O  0.07393606  0.62384339  0.91669012    -0.78200
O949        O  0.10202524  0.58357634  0.10684011    -0.89800
O950        O  0.15030191  0.34665336  0.06470740    -0.75800
O951        O  0.08819319  0.66306013  0.99698055    -0.85300
O952        O  0.08904819  0.66018162  0.08192327    -0.84900
O953        O  0.02978729  0.60875776  0.96770272    -0.71700
O954        O  0.03118694  0.60678077  0.04736133    -0.83800
Zr955      Zr  0.97449986  0.36314008  0.98131441     2.26400
Zr956      Zr  0.03088734  0.66151702  0.92984504     2.06300
Zr957      Zr  0.03338738  0.65646306  0.09235494     2.10000
Zr958      Zr  0.08672668  0.36780515  0.03855723     1.78800
O959        O  0.00027372  0.62233521  0.12515327    -0.92600
O960        O  0.11064567  0.39899498  0.99337319    -0.40400
O961        O  0.03121216  0.36558889  0.04951881    -0.77100
O962        O  0.03010781  0.36815852  0.97062170    -0.95800
O963        O  0.97534175  0.65814965  0.93995498    -0.89100
O964        O  0.97670283  0.65490186  0.02495831    -0.91900
C965        C  0.16893138  0.66032527  0.07656786     1.01800
C966        C  0.09575941  0.58889695  0.14062530     1.14800
C967        C  0.09606587  0.59891670  0.93805020     1.05500
O968        O  0.05835642  0.35407807  0.89105633    -0.94100
O969        O  0.98586472  0.36185923  0.87425861    -0.89800
O970        O  0.95739241  0.39130838  0.90951017    -0.83000
C971        C  0.96416168  0.38592226  0.87604568     1.12200
O972        O  0.97982970  0.54427718  0.96903335    -0.96000
Zr973      Zr  0.97460205  0.60681065  0.97919712     1.88900
O974        O  0.90949745  0.34325667  0.94641954    -0.72700
O975        O  0.99115274  0.62711230  0.86462399    -0.52000
O976        O  0.93959118  0.58383520  0.90427391    -0.96600
O977        O  0.95058972  0.57657349  0.02511123    -0.53900
O978        O  0.91090047  0.62791123  0.95025446    -0.73200
C979        C  0.89494772  0.65786043  0.94293733     0.99100
O980        O  0.95940988  0.42464280  0.98354720    -0.62000
O981        O  0.06889735  0.34697799  0.15497570    -0.56800
O982        O  0.95775038  0.38545361  0.03790397    -0.93500
O983        O  0.98816401  0.35338348  0.10067354    -0.91900
O984        O  0.11902978  0.39019477  0.11414940    -0.92300
O985        O  0.08368296  0.43120420  0.04351650    -0.91100
C986        C  0.96533807  0.37751702  0.07808184     1.18000
H987        H  0.11120418  0.65926494  0.11004390     0.33900
H988        H  0.02975930  0.38965933  0.95546846     0.44800
H989        H  0.95534659  0.65430143  0.03119095     0.38300
H990        H  0.02987351  0.58842271  0.95069690     0.34800
H991        H  0.13547039  0.40820389  0.01475592     0.26600
H992        H  0.99815201  0.63510057  0.84134895     0.32500
H993        H  0.93234844  0.60471949  0.88492992     0.38400
H994        H  0.14310061  0.39978416  0.11676921     0.32900
H995        H  0.06253558  0.37177565  0.14663385     0.31700
H996        H  0.00493697  0.63499427  0.15280943     0.33400
H997        H  0.97306493  0.56740381  0.05055066     0.32400
H998        H  0.05653536  0.43639614  0.02929066     0.36400
H999        H  0.97952430  0.43784616  0.98032943     0.29100
H1000       H  0.13448458  0.55254543  0.05158602     0.33400
H1001       H  0.00176307  0.53681071  0.99636852     0.36200
H1002       H  0.05812641  0.34178477  0.17575781     0.28800
H1003       H  0.93636706  0.42910646  0.95590296     0.41700
H1004       H  0.05980260  0.37795173  0.90322115     0.31800
H1005       H  0.11643725  0.38031639  0.97706165     0.39400
H1006       H  0.93730359  0.55552121  0.00800185     0.31200
H1007       H  0.00067217  0.60288689  0.87126109     0.31300
H1008       H  0.09359604  0.53840840  0.02218544     0.31500
C1009       C  0.21052877  0.65881010  0.09727849    -0.04800
C1010       C  0.22687272  0.33738165  0.07272603    -0.01900
C1011       C  0.26630186  0.34047040  0.09440887     0.03100
C1012       C  0.28982563  0.65724992  0.13858018    -0.04800
C1013       C  0.26951936  0.63521680  0.15384581    -0.01900
C1014       C  0.22998724  0.63572531  0.13308023     0.03100
C1015       C  0.20618114  0.35437925  0.03028589     0.37700
C1016       C  0.28932988  0.61226886  0.19127351     0.37700
C1017       C  0.20949543  0.61265580  0.14902512     0.36100
C1018       C  0.28545601  0.36413940  0.07738080     0.36100
N1019       N  0.19306049  0.59404125  0.16131129    -0.38700
N1020       N  0.30083270  0.38327569  0.06425404    -0.38700
N1021       N  0.30492806  0.59403363  0.22125770    -0.38100
N1022       N  0.19028763  0.36766382  0.99612280    -0.38100
C1023       C  0.77398618  0.65702267  0.88333634    -0.04800
C1024       C  0.79058431  0.34214252  0.86754965    -0.01900
C1025       C  0.82977734  0.33914251  0.88402604     0.03100
C1026       C  0.85331207  0.65803316  0.92276191    -0.04800
C1027       C  0.83410602  0.63727976  0.94108650    -0.01900
C1028       C  0.79457556  0.63656884  0.92114497     0.03100
C1029       C  0.77055311  0.36889669  0.83521594     0.37700
C1030       C  0.85487739  0.61784905  0.98164555     0.37700
C1031       C  0.77488965  0.61494118  0.93957630     0.36100
C1032       C  0.84902607  0.36028769  0.86457697     0.36100
N1033       N  0.75890202  0.59786350  0.95405008    -0.38700
N1034       N  0.86408866  0.37714025  0.84872130    -0.38700
N1035       N  0.87123121  0.60248808  0.01416234    -0.38100
N1036       N  0.75468953  0.39052905  0.80985112    -0.38100
C1037       C  0.11555329  0.57996449  0.91520796    -0.04800
C1038       C  0.11329679  0.54303326  0.91078657    -0.01900
C1039       C  0.13211157  0.52529340  0.88968271     0.03100
C1040       C  0.15187573  0.54426304  0.87060512    -0.04800
C1041       C  0.15310580  0.58122572  0.87362375    -0.01900
C1042       C  0.13575039  0.59890266  0.89649120     0.03100
C1043       C  0.09022487  0.52319537  0.92613368     0.37700
C1044       C  0.17177280  0.60121084  0.85249937     0.37700
C1045       C  0.13987319  0.63662970  0.90194635     0.36100
C1046       C  0.13210973  0.48730116  0.88879605     0.36100
N1047       N  0.14353996  0.66669338  0.90641277    -0.38700
N1048       N  0.13246416  0.45700374  0.88823531    -0.38700
N1049       N  0.18647027  0.61719978  0.83546260    -0.38100
N1050       N  0.07151594  0.50712769  0.93774901    -0.38100
C1051       C  0.27393007  0.50539763  0.87494763    -0.04800
C1052       C  0.29561364  0.51860962  0.85451717    -0.01900
C1053       C  0.33519277  0.51638488  0.87632264     0.03100
C1054       C  0.35338272  0.49978167  0.91808362    -0.04800
C1055       C  0.33149406  0.48592846  0.93791622    -0.01900
C1056       C  0.29209176  0.48908242  0.91672756     0.03100
C1057       C  0.27707652  0.53410849  0.81075407     0.37700
C1058       C  0.34928048  0.46855237  0.98046324     0.37700
C1059       C  0.27007414  0.47436647  0.93738640     0.36100
C1060       C  0.35703877  0.53021749  0.85500494     0.36100
N1061       N  0.25255969  0.46262808  0.95390486    -0.38700
N1062       N  0.37428901  0.54137084  0.83783831    -0.38700
N1063       N  0.36261550  0.45435767  0.01424549    -0.38100
N1064       N  0.26204220  0.54606867  0.77564785    -0.38100
C1065       C  0.65472994  0.36157406  0.89076215    -0.04800
C1066       C  0.66023567  0.39821237  0.89658441    -0.01900
C1067       C  0.64081136  0.41770257  0.91530329     0.03100
C1068       C  0.61688508  0.40064500  0.93020411    -0.04800
C1069       C  0.61220053  0.36389360  0.92551260    -0.01900
C1070       C  0.63092989  0.34448552  0.90580073     0.03100
C1071       C  0.68547624  0.41614264  0.88269584     0.37700
C1072       C  0.58685141  0.34599383  0.93914516     0.37700
C1073       C  0.62615960  0.30671510  0.90170587     0.36100
C1074       C  0.64525378  0.45549868  0.91861073     0.36100
N1075       N  0.62230731  0.27660887  0.89839786    -0.38700
N1076       N  0.64865576  0.48565801  0.92034275    -0.38700
N1077       N  0.56669643  0.33120280  0.94970038    -0.38100
N1078       N  0.70586924  0.43052817  0.87212936    -0.38100
C1079       C  0.40895075  0.61772280  0.13743131    -0.04800
C1080       C  0.43039933  0.63577426  0.11979959    -0.01900
C1081       C  0.45002492  0.61706818  0.10057692     0.03100
C1082       C  0.44738901  0.58015634  0.09740299    -0.04800
C1083       C  0.42448772  0.56221466  0.11304871    -0.01900
C1084       C  0.40572062  0.58079410  0.13341278     0.03100
C1085       C  0.43129228  0.67377666  0.12016957     0.37700
C1086       C  0.41949476  0.52455284  0.10711823     0.37700
C1087       C  0.38355647  0.56167613  0.15077965     0.36100
C1088       C  0.47393502  0.63584378  0.08547764     0.36100
N1089       N  0.36590142  0.54618844  0.16445993    -0.38700
N1090       N  0.49316491  0.65105472  0.07384305    -0.38700
N1091       N  0.41556492  0.49455238  0.10208190    -0.38100
N1092       N  0.43414835  0.37145205  0.12113823    -0.38100
C1093       C  0.71021485  0.47978390  0.10099113    -0.04800
C1094       C  0.72955125  0.46008443  0.14016950    -0.01900
C1095       C  0.76898978  0.45802711  0.15976205     0.03100
C1096       C  0.78923964  0.47581491  0.14055152    -0.04800
C1097       C  0.77002055  0.49505912  0.10125112    -0.01900
C1098       C  0.73060796  0.49638317  0.08095841     0.03100
C1099       C  0.70909164  0.44253504  0.16100124     0.37700
C1100       C  0.79097949  0.51436764  0.08239088     0.37700
C1101       C  0.71125021  0.51351588  0.03840551     0.36100
C1102       C  0.78884589  0.43769567  0.19977695     0.36100
N1103       N  0.69657585  0.52699114  0.00422671    -0.38700
N1104       N  0.80478833  0.42154202  0.23171628    -0.38700
N1105       N  0.80783229  0.52991466  0.06768618    -0.38100
N1106       N  0.69289537  0.42842632  0.17766319    -0.38100
C1107       C  0.94609184  0.39758563  0.09980132    -0.04800
C1108       C  0.94968691  0.43447983  0.10355153    -0.01900
C1109       C  0.93050855  0.45359487  0.12290972     0.03100
C1110       C  0.90822512  0.43596227  0.13963858    -0.04800
C1111       C  0.90457459  0.39910233  0.13590842    -0.01900
C1112       C  0.92345659  0.38000294  0.11615526     0.03100
C1113       C  0.97411968  0.45281478  0.08884357     0.37700
C1114       C  0.88139970  0.38077331  0.15254731     0.37700
C1115       C  0.91875185  0.34226244  0.11172428     0.36100
C1116       C  0.93273081  0.49158615  0.12440017     0.36100
N1117       N  0.91334469  0.65119837  0.10302110    -0.38700
N1118       N  0.93417903  0.52187751  0.12565002    -0.38700
N1119       N  0.86263554  0.36639858  0.16558627    -0.38100
N1120       N  0.99374204  0.46763178  0.07746286    -0.38100
C1121       C  0.41545059  0.61309276  0.75666043    -0.04800
C1122       C  0.43339807  0.63073526  0.79771713    -0.01900
C1123       C  0.45201830  0.61161332  0.83731643     0.03100
C1124       C  0.45220662  0.57454704  0.83631077    -0.04800
C1125       C  0.43369828  0.55692497  0.79506622    -0.01900
C1126       C  0.41520653  0.57612521  0.75550128     0.03100
C1127       C  0.43131223  0.66862262  0.79934235     0.37700
C1128       C  0.43217071  0.51893867  0.79328407     0.37700
C1129       C  0.39527234  0.55778557  0.71357455     0.36100
C1130       C  0.47178378  0.63040338  0.87882287     0.36100
N1131       N  0.37900706  0.54321547  0.68018679    -0.38700
N1132       N  0.48748010  0.64592113  0.91155364    -0.38700
N1133       N  0.43070623  0.48866233  0.79162028    -0.38100
N1134       N  0.42992389  0.37099071  0.79947138    -0.38100
C1135       C  0.21636323  0.64655699  0.59128841    -0.04800
C1136       C  0.23667901  0.62835541  0.57248376    -0.01900
C1137       C  0.27624769  0.63017760  0.59275147     0.03100
C1138       C  0.29561167  0.65045018  0.63148716    -0.04800
C1139       C  0.27335610  0.34133757  0.65437800    -0.01900
C1140       C  0.23392362  0.33854950  0.63561938     0.03100
C1141       C  0.21707799  0.60807995  0.53207753     0.37700
C1142       C  0.29353172  0.36176261  0.69452372     0.37700
C1143       C  0.21413184  0.35380670  0.65852451     0.36100
C1144       C  0.29718598  0.61003911  0.57488989     0.36100
N1145       N  0.19816389  0.36558379  0.67678412    -0.38700
N1146       N  0.31394065  0.59372156  0.56095883    -0.38700
N1147       N  0.30949617  0.37812468  0.72651172    -0.38100
N1148       N  0.20174796  0.59177945  0.49989863    -0.38100
C1149       C  0.11895150  0.41529706  0.68000433    -0.04800
C1150       C  0.13973567  0.40153797  0.72304404    -0.01900
C1151       C  0.15631530  0.42419723  0.76007800     0.03100
C1152       C  0.15334994  0.46091482  0.75445596    -0.04800
C1153       C  0.13283630  0.47473145  0.71154894    -0.01900
C1154       C  0.11489137  0.45207725  0.67467358     0.03100
C1155       C  0.14517546  0.36404589  0.72927265     0.37700
C1156       C  0.13106613  0.51236808  0.70528612     0.37700
C1157       C  0.09062643  0.46676244  0.63176872     0.36100
C1158       C  0.17623956  0.40965803  0.80421331     0.36100
N1159       N  0.07085511  0.47890139  0.59796914    -0.38700
N1160       N  0.19201098  0.39804587  0.83942209    -0.38700
N1161       N  0.13008944  0.54242256  0.70062047    -0.38100
N1162       N  0.14990215  0.33419455  0.73443690    -0.38100
C1163       C  0.91198145  0.51791786  0.25835345    -0.04800
C1164       C  0.90845566  0.55472443  0.25509682    -0.01900
C1165       C  0.92791284  0.57600804  0.29281934     0.03100
C1166       C  0.95017622  0.56057864  0.33444619    -0.04800
C1167       C  0.95385618  0.52372773  0.33755278    -0.01900
C1168       C  0.93505157  0.50251535  0.29957890     0.03100
C1169       C  0.88442580  0.57074842  0.21290219     0.37700
C1170       C  0.97754141  0.50757080  0.37971213     0.37700
C1171       C  0.93858801  0.46470810  0.30311850     0.36100
C1172       C  0.92365868  0.61373695  0.28885011     0.36100
N1173       N  0.94131828  0.43454645  0.30566685    -0.38700
N1174       N  0.91983093  0.64376235  0.28517305    -0.38700
N1175       N  0.99638954  0.49470684  0.41337142    -0.38100
N1176       N  0.86497399  0.58349582  0.17937694    -0.38100
C1177       C  0.78001768  0.65108265  0.38250552    -0.04800
C1178       C  0.80090122  0.66624545  0.42481506    -0.01900
C1179       C  0.84033163  0.66417640  0.44586744     0.03100
C1180       C  0.85941125  0.64825318  0.42403528    -0.04800
C1181       C  0.83855280  0.63282285  0.38180506    -0.01900
C1182       C  0.79895304  0.63382782  0.36135626     0.03100
C1183       C  0.78040938  0.34528530  0.45895152     0.37700
C1184       C  0.85787357  0.61635744  0.35911685     0.37700
C1185       C  0.77766797  0.61621957  0.31921215     0.36100
C1186       C  0.86041581  0.34628798  0.49663314     0.36100
N1187       N  0.76064889  0.60195785  0.28576203    -0.38700
N1188       N  0.87823404  0.35596467  0.53260872    -0.38700
N1189       N  0.87349225  0.60318045  0.34130198    -0.38100
N1190       N  0.76571277  0.35445617  0.47996833    -0.38100
C1191       C  0.61473713  0.40464280  0.19203670    -0.04800
C1192       C  0.61738949  0.36774845  0.18922033    -0.01900
C1193       C  0.63838920  0.34784699  0.22757884     0.03100
C1194       C  0.65546342  0.36417017  0.26949319    -0.04800
C1195       C  0.65181756  0.40057757  0.27293256    -0.01900
C1196       C  0.63199292  0.42085768  0.23445743     0.03100
C1197       C  0.59654407  0.34958010  0.14744604     0.37700
C1198       C  0.66805125  0.41696026  0.31644659     0.37700
C1199       C  0.63023332  0.45844350  0.23905061     0.36100
C1200       C  0.64826281  0.64023366  0.21933042     0.36100
N1201       N  0.62929905  0.48836697  0.24381450    -0.38700
N1202       N  0.65374925  0.61070735  0.21741995    -0.38700
N1203       N  0.68090969  0.42959758  0.35138038    -0.38100
N1204       N  0.57960244  0.33434730  0.11475218    -0.38100
C1205       C  0.11484718  0.56569324  0.17978209    -0.04800
C1206       C  0.11224398  0.52879127  0.17485791    -0.01900
C1207       C  0.13070062  0.50696817  0.21211823     0.03100
C1208       C  0.15171561  0.52182567  0.25456258    -0.04800
C1209       C  0.15369646  0.55857280  0.25965505    -0.01900
C1210       C  0.13618471  0.58041066  0.22235757     0.03100
C1211       C  0.09054683  0.51317294  0.13148581     0.37700
C1212       C  0.17327189  0.57390891  0.30359848     0.37700
C1213       C  0.14249937  0.61795279  0.22757583     0.36100
C1214       C  0.12841528  0.46918124  0.20679999     0.36100
N1215       N  0.14835360  0.64778252  0.23202994    -0.38700
N1216       N  0.12660912  0.43902640  0.20275405    -0.38700
N1217       N  0.18863888  0.58597258  0.33875338    -0.38100
N1218       N  0.07343788  0.50072221  0.09683815    -0.38100
C1219       C  0.15232247  0.44064308  0.37173964    -0.04800
C1220       C  0.13590068  0.45896303  0.39494347    -0.01900
C1221       C  0.11776826  0.44043888  0.41620727     0.03100
C1222       C  0.11704074  0.40339617  0.41561342    -0.04800
C1223       C  0.13402488  0.38512413  0.39282396    -0.01900
C1224       C  0.15080897  0.40374341  0.37012053     0.03100
C1225       C  0.13818665  0.49691545  0.39745086     0.37700
C1226       C  0.13572724  0.34716279  0.39419736     0.37700
C1227       C  0.16590053  0.38501888  0.34423849     0.36100
C1228       C  0.09890995  0.45962406  0.43749410     0.36100
N1229       N  0.17765131  0.37029039  0.32317224    -0.38700
N1230       N  0.08373656  0.47503355  0.45423010    -0.38700
N1231       N  0.13753655  0.31691756  0.39551217    -0.38100
N1232       N  0.14017058  0.52717212  0.39943971    -0.38100
C1233       C  0.35292733  0.48285915  0.41840540    -0.04800
C1234       C  0.33188020  0.49937115  0.43747499    -0.01900
C1235       C  0.29228221  0.49840013  0.41554201     0.03100
C1236       C  0.27338322  0.47977116  0.37529754    -0.04800
C1237       C  0.29426343  0.46161849  0.35746607    -0.01900
C1238       C  0.33384423  0.46341436  0.37862704     0.03100
C1239       C  0.35081354  0.51579632  0.48076945     0.37700
C1240       C  0.27488689  0.44062060  0.31764975     0.37700
C1241       C  0.35480050  0.44580367  0.35876659     0.36100
C1242       C  0.27076837  0.51698042  0.43397438     0.36100
N1243       N  0.37143183  0.43167181  0.34287651    -0.38700
N1244       N  0.25321368  0.53174523  0.44816485    -0.38700
N1245       N  0.25924829  0.42376108  0.28603551    -0.38100
N1246       N  0.36554372  0.52847456  0.51562003    -0.38100
C1247       C  0.61642370  0.57945742  0.68172151    -0.04800
C1248       C  0.61501219  0.61648465  0.68140606    -0.01900
C1249       C  0.63274922  0.63563044  0.72141602     0.03100
C1250       C  0.65145455  0.61798010  0.76215672    -0.04800
C1251       C  0.65218004  0.58103436  0.76274856    -0.01900
C1252       C  0.63513024  0.56186574  0.72275283     0.03100
C1253       C  0.59470190  0.63521330  0.64024723     0.37700
C1254       C  0.67047159  0.56267722  0.80467173     0.37700
C1255       C  0.63815299  0.52398151  0.72394169     0.36100
C1256       C  0.63274361  0.67363455  0.72044306     0.36100
N1257       N  0.64081653  0.49380049  0.72514727    -0.38700
N1258       N  0.62742038  0.36787367  0.72081254    -0.38700
N1259       N  0.68498618  0.54798389  0.83804522    -0.38100
N1260       N  0.57873393  0.65097008  0.60799914    -0.38100
C1261       C  0.40931950  0.36417834  0.25386643    -0.04800
C1262       C  0.40718415  0.40101036  0.25142092    -0.01900
C1263       C  0.42631771  0.42144398  0.28987585     0.03100
C1264       C  0.44838025  0.40514755  0.33093554    -0.04800
C1265       C  0.45185492  0.36829399  0.33297373    -0.01900
C1266       C  0.43215300  0.34783754  0.29455016     0.03100
C1267       C  0.38585790  0.41796170  0.20902555     0.37700
C1268       C  0.47671377  0.35144527  0.37418138     0.37700
C1269       C  0.43094734  0.64504736  0.30166643     0.36100
C1270       C  0.42200991  0.45918383  0.28708226     0.36100
N1271       N  0.43015427  0.61481751  0.30364112    -0.38700
N1272       N  0.41790604  0.48919164  0.28393318    -0.38700
N1273       N  0.49671106  0.33787341  0.40684006    -0.38100
N1274       N  0.36901194  0.43150959  0.17523228    -0.38100
C1275       C  0.45061663  0.40569091  0.59603593    -0.04800
C1276       C  0.45240398  0.36868776  0.59729242    -0.01900
C1277       C  0.43533095  0.34934688  0.61920941     0.03100
C1278       C  0.41484062  0.36662534  0.63836439    -0.04800
C1279       C  0.41383093  0.40358031  0.63820293    -0.01900
C1280       C  0.43163468  0.42305087  0.61720161     0.03100
C1281       C  0.47248575  0.35018453  0.57699358     0.37700
C1282       C  0.39568657  0.42162474  0.66122799     0.37700
C1283       C  0.42939583  0.46099160  0.61639296     0.36100
C1284       C  0.43954715  0.31158831  0.62274429     0.36100
N1285       N  0.42748992  0.49123116  0.61585145    -0.38700
N1286       N  0.44361924  0.28157329  0.62615464    -0.38700
N1287       N  0.38152194  0.43602416  0.67993120    -0.38100
N1288       N  0.48817082  0.33465442  0.56099587    -0.38100
C1289       C  0.65812031  0.61773969  0.38217710    -0.04800
C1290       C  0.65759753  0.58076569  0.38043486    -0.01900
C1291       C  0.63750653  0.56134013  0.39853592     0.03100
C1292       C  0.61673266  0.57879353  0.41726321    -0.04800
C1293       C  0.61651903  0.61579765  0.41798756    -0.01900
C1294       C  0.63789683  0.63519259  0.40155189     0.03100
C1295       C  0.67731242  0.56269747  0.35927338     0.37700
C1296       C  0.59305666  0.63393858  0.43403304     0.37700
C1297       C  0.63986509  0.67305908  0.40574139     0.36100
C1298       C  0.63926747  0.52338563  0.39898259     0.36100
N1299       N  0.64155050  0.70323024  0.40958427    -0.38700
N1300       N  0.64106600  0.49314182  0.39934479    -0.38700
N1301       N  0.57398536  0.64823048  0.44643741    -0.38100
N1302       N  0.69304610  0.54852178  0.34226727    -0.38100
C1303       C  0.71131261  0.49757445  0.59465292    -0.04800
C1304       C  0.73175956  0.47459332  0.58050409    -0.01900
C1305       C  0.77120127  0.47362463  0.60323425     0.03100
C1306       C  0.79083006  0.49655328  0.63902912    -0.04800
C1307       C  0.77092811  0.52000167  0.65280660    -0.01900
C1308       C  0.73133213  0.52040453  0.63104168     0.03100
C1309       C  0.71275059  0.45232838  0.54180506     0.37700
C1310       C  0.79137336  0.54332070  0.69001781     0.37700
C1311       C  0.71153550  0.54339448  0.64759934     0.36100
C1312       C  0.79160874  0.44826592  0.59041090     0.36100
N1313       N  0.69607102  0.56180554  0.66115436    -0.38700
N1314       N  0.80753534  0.42771989  0.58017902    -0.38700
N1315       N  0.80781268  0.56177149  0.71980266    -0.38100
N1316       N  0.69854896  0.43431649  0.51104101    -0.38100
C1317       C  0.91030993  0.45266378  0.76080908    -0.04800
C1318       C  0.90676813  0.41586866  0.75641656    -0.01900
C1319       C  0.92402159  0.39419864  0.79401796     0.03100
C1320       C  0.94563729  0.40904706  0.83646741    -0.04800
C1321       C  0.94993005  0.44594227  0.84060601    -0.01900
C1322       C  0.93194997  0.46764119  0.80303017     0.03100
C1323       C  0.88570416  0.40028265  0.71285276     0.37700
C1324       C  0.97404980  0.46167028  0.88313620     0.37700
C1325       C  0.93509360  0.50546335  0.80787798     0.36100
C1326       C  0.91863296  0.35655428  0.78898740     0.36100
N1327       N  0.93739886  0.53563734  0.81161915    -0.38700
N1328       N  0.91415243  0.32654738  0.78477846    -0.38700
N1329       N  0.99347489  0.47451272  0.91681947    -0.38100
N1330       N  0.86894549  0.38808259  0.67798075    -0.38100
C1331       C  0.95230439  0.56539996  0.60031278    -0.04800
C1332       C  0.94986951  0.52837449  0.60008528    -0.01900
C1333       C  0.93028242  0.51128454  0.62079573     0.03100
C1334       C  0.91299568  0.53094582  0.64195276    -0.04800
C1335       C  0.91471685  0.56784839  0.64153718    -0.01900
C1336       C  0.93451668  0.58501084  0.62119393     0.03100
C1337       C  0.96839670  0.50758874  0.57980611     0.37700
C1338       C  0.89587235  0.58816871  0.66196268     0.37700
C1339       C  0.93558372  0.62298863  0.62088765     0.36100
C1340       C  0.92701717  0.47336246  0.61948909     0.36100
N1341       N  0.93613463  0.65329201  0.62099676    -0.38700
N1342       N  0.92407809  0.44315885  0.61861867    -0.38700
N1343       N  0.88055979  0.60419881  0.67802628    -0.38100
N1344       N  0.98306854  0.49046877  0.56395267    -0.38100
C1345       C  0.89181353  0.84423493  0.66154921     0.03700
C1346       C  0.85261565  0.84727049  0.64238577    -0.12500
C1347       C  0.83183362  0.83011326  0.66105739     0.01200
C1348       C  0.85029938  0.80963756  0.69893558    -0.11000
C1349       C  0.88928823  0.80632067  0.71829213     0.03600
C1350       C  0.91010793  0.82361272  0.69963923    -0.10400
H1351       H  0.83826527  0.86305462  0.61293757     0.09200
H1352       H  0.83429908  0.79615627  0.71330303     0.06800
H1353       H  0.94038260  0.82146297  0.71508535     0.06600
Zr1354     Zr  0.47826498  0.78024080  0.48312518     2.17500
O1355       O  0.46061029  0.71877169  0.46689970    -0.50800
O1356       O  0.41312761  0.79718956  0.45117279    -0.74000
O1357       O  0.46286623  0.75411750  0.53941016    -0.80800
O1358       O  0.49027553  0.78677741  0.37671432    -0.82500
O1359       O  0.49255566  0.78553657  0.60325519    -0.78200
O1360       O  0.46155681  0.75493270  0.41006200    -0.89800
O1361       O  0.41006602  0.85646784  0.45242484    -0.75800
O1362       O  0.47682488  0.82924942  0.52637249    -0.85300
O1363       O  0.47467831  0.83113630  0.44044151    -0.84900
O1364       O  0.53517231  0.77642859  0.55089580    -0.71700
O1365       O  0.53296148  0.77892218  0.47059764    -0.83800
Zr1366     Zr  0.58656134  0.87707935  0.53991935     2.26400
Zr1367     Zr  0.53456992  0.82691362  0.59298036     2.06300
Zr1368     Zr  0.52981284  0.83090065  0.42928195     2.10000
Zr1369     Zr  0.47399475  0.87986961  0.48396700     1.78800
O1370       O  0.56272686  0.80282435  0.39209329    -0.92600
O1371       O  0.44890303  0.90753825  0.53019758    -0.40400
O1372       O  0.52923187  0.88066035  0.47212097    -0.77100
O1373       O  0.53111891  0.87901680  0.55151250    -0.95800
O1374       O  0.59010857  0.82615385  0.58244805    -0.89100
O1375       O  0.58701350  0.82819363  0.49629934    -0.91900
C1376       C  0.39479969  0.82585107  0.44322644     1.01800
C1377       C  0.46841566  0.76195647  0.37704003     1.14800
C1378       C  0.47028702  0.76102860  0.57988314     1.05500
O1379       O  0.50497981  0.85180036  0.63596881    -0.94100
O1380       O  0.57226556  0.87193689  0.64481462    -0.89800
O1381       O  0.60436057  0.90156662  0.61384167    -0.83000
C1382       C  0.59557204  0.89564405  0.64563110     1.12200
O1383       O  0.58386741  0.71369040  0.53648576    -0.96000
Zr1384     Zr  0.58974678  0.77732097  0.53825922     1.88900
O1385       O  0.65184987  0.85852071  0.57404721    -0.72700
O1386       O  0.57719421  0.79318880  0.65657186    -0.52000
O1387       O  0.62058543  0.74857484  0.61003628    -0.96600
O1388       O  0.61466587  0.75102177  0.49097303    -0.53900
O1389       O  0.65358770  0.79918823  0.56987519    -0.73200
C1390       C  0.66939952  0.82939095  0.58029621     0.99100
O1391       O  0.60306312  0.93899828  0.54331948    -0.62000
O1392       O  0.48808116  0.86419275  0.36461725    -0.56800
O1393       O  0.60364207  0.90260504  0.48500301    -0.93500
O1394       O  0.57127061  0.87369864  0.41955251    -0.91900
O1395       O  0.44008930  0.90976118  0.41344481    -0.92300
O1396       O  0.48172214  0.94330784  0.48596246    -0.91100
C1397       C  0.59517916  0.89682287  0.44402391     1.18000
H1398       H  0.45250238  0.83053261  0.41228617     0.33900
H1399       H  0.53167808  0.89970929  0.56825906     0.44800
H1400       H  0.60824172  0.82942858  0.48988832     0.38300
H1401       H  0.53533610  0.75516907  0.56651707     0.34800
H1402       H  0.44055207  0.88777114  0.54267920     0.26600
H1403       H  0.56843586  0.79737405  0.67942301     0.32500
H1404       H  0.64550372  0.74176094  0.61292512     0.38400
H1405       H  0.42507606  0.89130380  0.39216499     0.32900
H1406       H  0.49735855  0.88866416  0.37101681     0.31700
H1407       H  0.55200106  0.81336889  0.36216832     0.33400
H1408       H  0.61581924  0.77030841  0.47201425     0.32400
H1409       H  0.50873130  0.94718067  0.49478560     0.36400
H1410       H  0.58232377  0.95139757  0.54567523     0.29100
H1411       H  0.43541911  0.71655726  0.46577498     0.33400
H1412       H  0.55675628  0.70900150  0.51837215     0.36200
H1413       H  0.49433980  0.85651332  0.34066247     0.28800
H1414       H  0.62531705  0.94292971  0.57209323     0.41700
H1415       H  0.48874549  0.87059488  0.61710390     0.31800
H1416       H  0.47081685  0.91756926  0.55589724     0.39400
H1417       H  0.59440331  0.73552047  0.47021477     0.31200
H1418       H  0.57063552  0.76838197  0.64787069     0.31300
H1419       H  0.47756501  0.70585960  0.49372356     0.31500
C1420       C  0.17240327  0.79788142  0.35590413     0.03700
C1421       C  0.15325609  0.81752679  0.31708934    -0.12500
C1422       C  0.17328635  0.83638137  0.29858147     0.01200
C1423       C  0.21258142  0.83545765  0.31914616    -0.11000
C1424       C  0.23193993  0.81617100  0.35803400     0.03600
C1425       C  0.21179605  0.79728309  0.37623175    -0.10400
H1426       H  0.12288342  0.81809769  0.30130376     0.09200
H1427       H  0.22813620  0.85020356  0.30522447     0.06800
H1428       H  0.22674548  0.78231992  0.40628504     0.06600
C1429       C  0.67458143  0.97792122  0.36562481     0.03700
C1430       C  0.65508276  0.99715970  0.32660273    -0.12500
C1431       C  0.67468672  0.01557393  0.30735305     0.01200
C1432       C  0.71393229  0.01449402  0.32697187    -0.11000
C1433       C  0.73366266  0.99525575  0.36580532     0.03600
C1434       C  0.71394653  0.97727756  0.38523293    -0.10400
H1435       H  0.62470600  0.99765952  0.31109179     0.09200
H1436       H  0.73391745  0.68550624  0.30702743     0.06800
H1437       H  0.72922127  0.96238728  0.41526978     0.06600
Zr1438     Zr  0.97657901  0.94029522  0.48167817     2.17500
O1439       O  0.95297554  0.88022048  0.46538032    -0.50800
O1440       O  0.91228911  0.96099916  0.44832546    -0.74000
O1441       O  0.96072711  0.91666635  0.53865289    -0.80800
O1442       O  0.99069024  0.94016624  0.37687575    -0.82500
O1443       O  0.99190610  0.94831823  0.60193981    -0.78200
O1444       O  0.96057116  0.91173796  0.41128634    -0.89800
O1445       O  0.91768909  0.67842497  0.45605042    -0.75800
O1446       O  0.97762261  0.99104841  0.52321742    -0.85300
O1447       O  0.97619428  0.98908644  0.43724500    -0.84900
O1448       O  0.03348777  0.93545669  0.54949027    -0.71700
O1449       O  0.03123931  0.93433495  0.46948430    -0.83800
Zr1450     Zr  0.09342755  0.69408627  0.53666895     2.26400
Zr1451     Zr  0.03509008  0.98741416  0.59017431     2.06300
Zr1452     Zr  0.03157380  0.98425711  0.42673889     2.10000
Zr1453     Zr  0.98196622  0.69969482  0.48534527     1.78800
O1454       O  0.06738670  0.95040170  0.39778843    -0.92600
O1455       O  0.95620178  0.72946457  0.52951945    -0.40400
O1456       O  0.03543150  0.69946483  0.47033479    -0.77100
O1457       O  0.03969326  0.69669765  0.55143461    -0.95800
O1458       O  0.09026030  0.98267080  0.57933356    -0.89100
O1459       O  0.08823466  0.98110449  0.49369383    -0.91900
C1460       C  0.89607478  0.99074443  0.44265444     1.01800
C1461       C  0.96822493  0.91667033  0.37855945     1.14800
C1462       C  0.96866692  0.92420957  0.57905875     1.05500
O1463       O  0.01322343  0.67418266  0.63209699    -0.94100
O1464       O  0.08450927  0.68673928  0.64566285    -0.89800
O1465       O  0.11047850  0.71970920  0.61012866    -0.83000
C1466       C  0.10474283  0.71242445  0.64392630     1.12200
O1467       O  0.07606741  0.86943153  0.53719174    -0.96000
Zr1468     Zr  0.08808393  0.93209521  0.53686422     1.88900
O1469       O  0.15739635  0.67382055  0.56539602    -0.72700
O1470       O  0.07356848  0.95338001  0.65577963    -0.52000
O1471       O  0.12199112  0.90116017  0.60652959    -0.96600
O1472       O  0.10874286  0.90416701  0.48659177    -0.53900
O1473       O  0.15293385  0.95209506  0.56715075    -0.73200
C1474       C  0.16964600  0.98200796  0.57451318     0.99100
O1475       O  0.11915853  0.75335737  0.54565144    -0.62000
O1476       O  0.99669153  0.68359124  0.36041516    -0.56800
O1477       O  0.10602506  0.72051386  0.47845688    -0.93500
O1478       O  0.07391895  0.69044403  0.41410469    -0.91900
O1479       O  0.95103468  0.72834796  0.41354132    -0.92300
O1480       O  0.99341173  0.76257631  0.49652451    -0.91100
C1481       C  0.09723018  0.71424105  0.43742819     1.18000
H1482       H  0.95412558  0.98872221  0.40906690     0.33900
H1483       H  0.04071837  0.71711314  0.56875978     0.44800
H1484       H  0.10944520  0.98056251  0.48717427     0.38300
H1485       H  0.03267172  0.91485920  0.56564245     0.34800
H1486       H  0.93047253  0.73613407  0.50812878     0.26600
H1487       H  0.06429816  0.95949390  0.67768835     0.32500
H1488       H  0.13045107  0.91970310  0.62955086     0.38400
H1489       H  0.97051406  0.74363872  0.41178776     0.32900
H1490       H  0.97059162  0.68179529  0.35643628     0.31700
H1491       H  0.05592909  0.95585303  0.36573660     0.33400
H1492       H  0.08672750  0.89060493  0.46545447     0.32400
H1493       H  0.02101674  0.76526842  0.50949171     0.36400
H1494       H  0.10340927  0.76807511  0.55471701     0.29100
H1495       H  0.93073793  0.87882096  0.47120554     0.33400
H1496       H  0.04956007  0.86627598  0.51511773     0.36200
H1497       H  0.00389756  0.70826738  0.36942322     0.28800
H1498       H  0.14401703  0.75262637  0.57182302     0.41700
H1499       H  0.01096485  0.69885675  0.62228247     0.31800
H1500       H  0.95262831  0.71079348  0.54767546     0.39400
H1501       H  0.12690134  0.88622554  0.50473936     0.31200
H1502       H  0.06556227  0.92873585  0.64761478     0.31300
H1503       H  0.97230557  0.86581355  0.48863159     0.31500
C1504       C  0.39648844  0.67457133  0.66025721     0.03700
C1505       C  0.41032130  0.98700749  0.69620759    -0.12500
C1506       C  0.39089063  0.96656941  0.71402474     0.01200
C1507       C  0.35169917  0.96449065  0.69184936    -0.11000
C1508       C  0.33715225  0.65145113  0.65388652     0.03600
C1509       C  0.35716028  0.67279070  0.63785208    -0.10400
H1510       H  0.44065852  0.98859901  0.71318044     0.09200
H1511       H  0.33658832  0.94906851  0.70576972     0.06800
H1512       H  0.34215649  0.68805223  0.60807762     0.06600
C1513       C  0.88820759  0.79078131  0.16639817     0.03700
C1514       C  0.84887791  0.79066104  0.14672378    -0.12500
C1515       C  0.82979220  0.80945239  0.16603328     0.01200
C1516       C  0.85024955  0.82843764  0.20517352    -0.11000
C1517       C  0.88956202  0.82881358  0.22484227     0.03600
C1518       C  0.90841636  0.80972055  0.20562625    -0.10400
H1519       H  0.83312930  0.77649579  0.11597922     0.09200
H1520       H  0.83560567  0.84357016  0.21973808     0.06800
H1521       H  0.93879767  0.81034941  0.22054449     0.06600
Zr1522     Zr  0.58238160  0.77076612  0.03620432     2.17500
O1523       O  0.59105279  0.70772228  0.04411285    -0.50800
O1524       O  0.64847042  0.78663754  0.07009959    -0.74000
O1525       O  0.60114436  0.74788767  0.98159201    -0.80800
O1526       O  0.57014795  0.77538379  0.14199254    -0.82500
O1527       O  0.57447010  0.78133225  0.91949583    -0.78200
O1528       O  0.60188705  0.74696595  0.10989313    -0.89800
O1529       O  0.65255917  0.84607088  0.07295381    -0.75800
O1530       O  0.58715423  0.82142003  0.99795753    -0.85300
O1531       O  0.58540353  0.81953197  0.08173806    -0.84900
O1532       O  0.52684851  0.76940880  0.96673439    -0.71700
O1533       O  0.52581706  0.76817630  0.04502522    -0.83800
Zr1534     Zr  0.47727963  0.86849168  0.98198830     2.26400
Zr1535     Zr  0.53135234  0.82138404  0.92941384     2.06300
Zr1536     Zr  0.52867590  0.81817248  0.08953051     2.10000
Zr1537     Zr  0.58954687  0.86998194  0.04324620     1.78800
O1538       O  0.49321066  0.78577651  0.12081329    -0.92600
O1539       O  0.61900564  0.90121085  0.00387500    -0.40400
O1540       O  0.53273791  0.87001594  0.05166470    -0.77100
O1541       O  0.53419239  0.87134963  0.97387322    -0.95800
O1542       O  0.47423302  0.81966311  0.93664335    -0.89100
O1543       O  0.47289790  0.81788035  0.02068331    -0.91900
C1544       C  0.66720583  0.81548425  0.07989414     1.01800
C1545       C  0.59412705  0.75279337  0.14242663     1.14800
C1546       C  0.59588075  0.75641220  0.94237272     1.05500
O1547       O  0.56684298  0.85758815  0.90170319    -0.94100
O1548       O  0.49078153  0.86390349  0.87682259    -0.89800
O1549       O  0.46006566  0.89366898  0.90908335    -0.83000
C1550       C  0.46775595  0.88734956  0.87657022     1.12200
O1551       O  0.47180435  0.70567644  0.96963186    -0.96000
Zr1552     Zr  0.47033275  0.76915382  0.97559301     1.88900
O1553       O  0.41152265  0.85145635  0.94809660    -0.72700
O1554       O  0.49517441  0.78972914  0.86038031    -0.52000
O1555       O  0.43993296  0.74655049  0.89995560    -0.96600
O1556       O  0.44588892  0.73722368  0.01986357    -0.53900
O1557       O  0.40692007  0.79210439  0.94578417    -0.73200
C1558       C  0.39250151  0.82280349  0.93850337     0.99100
O1559       O  0.46118801  0.93031690  0.96981915    -0.62000
O1560       O  0.56569717  0.85302127  0.15543288    -0.56800
O1561       O  0.46145050  0.89296794  0.03823390    -0.93500
O1562       O  0.48636539  0.85890475  0.09985895    -0.91900
O1563       O  0.62002429  0.89222285  0.11900174    -0.92300
O1564       O  0.58577791  0.93353945  0.04487841    -0.97500
C1565       C  0.46622578  0.88458683  0.07729221     1.18000
H1566       H  0.60702079  0.81831553  0.11032623     0.33900
H1567       H  0.53479655  0.89257604  0.95868540     0.44800
H1568       H  0.45103560  0.81853046  0.02609249     0.38300
H1569       H  0.52682159  0.74883535  0.94995987     0.34800
H1570       H  0.64478082  0.90654652  0.02671764     0.26600
H1571       H  0.51105449  0.78989876  0.84465386     0.32500
H1572       H  0.41369085  0.74159097  0.89406891     0.38400
H1573       H  0.64530302  0.89979541  0.12348556     0.32900
H1574       H  0.55992098  0.87767049  0.14582729     0.31700
H1575       H  0.50910048  0.78629875  0.15327210     0.33400
H1576       H  0.41993043  0.73060830  0.99872974     0.32400
H1577       H  0.56198578  0.93807527  0.04651072     0.36400
H1578       H  0.43638905  0.93244705  0.96972886     0.29100
H1579       H  0.61500174  0.70290650  0.04299633     0.33400
H1580       H  0.49785084  0.69926170  0.99020602     0.36200
H1581       H  0.55374032  0.84900544  0.17527054     0.28800
H1582       H  0.47903333  0.94253183  0.99705204     0.41700
H1583       H  0.56252147  0.84661144  0.87318768     0.31800
H1584       H  0.62220312  0.88325372  0.98467816     0.39400
H1585       H  0.44291000  0.75509486  0.03930441     0.31200
H1586       H  0.49497316  0.76503030  0.86917683     0.31300
H1587       H  0.57130068  0.69774751  0.01637330     0.31500
C1588       C  0.17107776  0.84482198  0.85347567     0.03700
C1589       C  0.15178433  0.82252757  0.81681775    -0.12500
C1590       C  0.17153916  0.80396001  0.79790330     0.01200
C1591       C  0.21056381  0.80778184  0.81583055    -0.11000
C1592       C  0.23002192  0.82934338  0.85267852     0.03600
C1593       C  0.21024575  0.84798418  0.87124331    -0.10400
H1594       H  0.12160299  0.81965734  0.80308903     0.09200
H1595       H  0.22596830  0.79315161  0.80180320     0.06800
H1596       H  0.22545711  0.86429832  0.90021385     0.06600
C1597       C  0.67431711  0.67644600  0.86267422     0.03700
C1598       C  0.65243731  0.00057581  0.82434158    -0.12500
C1599       C  0.67017747  0.97927220  0.80560449     0.01200
C1600       C  0.70943345  0.97762398  0.82558332    -0.11000
C1601       C  0.73244566  0.65679791  0.86297407     0.03600
C1602       C  0.71367321  0.67566577  0.88259181    -0.10400
H1603       H  0.62208776  0.00157500  0.80938442     0.09200
H1604       H  0.72324077  0.96120571  0.81116146     0.06800
H1605       H  0.72971457  0.68993321  0.91317832     0.06600
C1606       C  0.38863894  0.96981953  0.15335826     0.03700
C1607       C  0.34929836  0.96956400  0.13448983    -0.12500
C1608       C  0.33058238  0.98853013  0.15413611     0.01200
C1609       C  0.35116720  0.00854866  0.19223885    -0.11000
C1610       C  0.39040316  0.00942939  0.21112586     0.03600
C1611       C  0.40907059  0.98990457  0.19178059    -0.10400
H1612       H  0.33321676  0.95436160  0.10471517     0.09200
H1613       H  0.33732876  0.69203669  0.21232855     0.06800
H1614       H  0.43944735  0.98997515  0.20697916     0.06600
Zr1615     Zr  0.08427529  0.93982288  0.03316735     2.17500
O1616       O  0.09854787  0.87765323  0.04461856    -0.50800
O1617       O  0.14984455  0.95808529  0.06459821    -0.74000
O1618       O  0.10158207  0.91636627  0.97713845    -0.80800
O1619       O  0.07211664  0.94414979  0.14010060    -0.82500
O1620       O  0.07136218  0.94775490  0.91381496    -0.78200
O1621       O  0.10213986  0.91465475  0.10674416    -0.89800
O1622       O  0.15347545  0.69051582  0.06925468    -0.75800
O1623       O  0.08645287  0.99007070  0.99256448    -0.85300
O1624       O  0.08820136  0.98945468  0.07794441    -0.84900
O1625       O  0.02706767  0.93747590  0.96473852    -0.71700
O1626       O  0.02871666  0.93743500  0.04424225    -0.83800
Zr1627     Zr  0.97773321  0.70642855  0.98576547     2.26400
Zr1628     Zr  0.02958384  0.98879442  0.92500404     2.06300
Zr1629     Zr  0.03268026  0.98795692  0.08827411     2.10000
Zr1630     Zr  0.08968098  0.71139893  0.04206785     1.78800
O1631       O  0.00071464  0.95679714  0.12480324    -0.92600
O1632       O  0.10699922  0.74163585  0.99008460    -0.40400
O1633       O  0.03456609  0.70866883  0.05384932    -0.77100
O1634       O  0.03293976  0.71151013  0.97429622    -0.95800
O1635       O  0.97383475  0.98753232  0.93521750    -0.89100
O1636       O  0.97563793  0.98711697  0.02104986    -0.91900
C1637       C  0.16808149  0.98721724  0.07287106     1.01800
C1638       C  0.09471596  0.92049327  0.13967226     1.14800
C1639       C  0.09430224  0.92381848  0.93686602     1.05500
O1640       O  0.06116759  0.69491055  0.89301161    -0.94100
O1641       O  0.98816307  0.70326415  0.87849796    -0.89800
O1642       O  0.95711020  0.73110255  0.91192164    -0.83000
C1643       C  0.96438844  0.72554335  0.87892000     1.12200
O1644       O  0.97520474  0.87450486  0.97179560    -0.96000
Zr1645     Zr  0.97170574  0.93785631  0.97647797     1.88900
O1646       O  0.91239674  0.68744716  0.95183616    -0.72700
O1647       O  0.98995304  0.95731293  0.85703520    -0.52000
O1648       O  0.93345490  0.91353023  0.90302475    -0.96600
O1649       O  0.95002337  0.90746443  0.02445885    -0.53900
O1650       O  0.90861495  0.96152153  0.95000412    -0.73200
C1651       C  0.89358032  0.99196808  0.94037235     0.99100
O1652       O  0.96792612  0.76910931  0.98879532    -0.62000
O1653       O  0.06811922  0.69132418  0.15910423    -0.56800
O1654       O  0.95867967  0.72765448  0.04058452    -0.93500
O1655       O  0.98965981  0.69534217  0.10305979    -0.91900
O1656       O  0.12362839  0.73793026  0.11532313    -0.92300
O1657       O  0.08778134  0.77465427  0.04959017    -0.91100
C1658       C  0.96612974  0.71904811  0.08047472     1.18000
H1659       H  0.11030464  0.98864999  0.10614142     0.33900
H1660       H  0.03207378  0.73286844  0.95860556     0.44800
H1661       H  0.95446482  0.98777481  0.02747755     0.38300
H1662       H  0.02660193  0.91673163  0.94810162     0.34800
H1663       H  0.12994511  0.75516825  0.00882591     0.26600
H1664       H  0.99951233  0.96435909  0.83564582     0.32500
H1665       H  0.94357859  0.92424691  0.88384512     0.38400
H1666       H  0.15020121  0.73914635  0.12088481     0.32900
H1667       H  0.06822214  0.67687843  0.18355223     0.31700
H1668       H  0.01090700  0.96722221  0.15486920     0.33400
H1669       H  0.92462733  0.89870556  0.00420802     0.32400
H1670       H  0.06131114  0.78084149  0.03060439     0.36400
H1671       H  0.98882789  0.78032473  0.98511993     0.29100
H1672       H  0.12205949  0.87433547  0.04188665     0.33400
H1673       H  0.00199077  0.86982032  0.98056026     0.36200
H1674       H  0.09441787  0.69120752  0.16361304     0.28800
H1675       H  0.94507912  0.77476776  0.96145389     0.41700
H1676       H  0.05563480  0.68164407  0.86549620     0.31800
H1677       H  0.11574406  0.72293723  0.97666471     0.39400
H1678       H  0.94564410  0.92611927  0.04195645     0.31200
H1679       H  0.99712404  0.93244111  0.86347734     0.31300
H1680       H  0.07876728  0.86593425  0.01834005     0.31500
C1681       C  0.20969577  0.98606694  0.09264237    -0.04800
C1682       C  0.23107050  0.68050487  0.08173983    -0.01900
C1683       C  0.27057530  0.67994612  0.10267025     0.03100
C1684       C  0.28905190  0.98814015  0.13377040    -0.04800
C1685       C  0.26986886  0.96785949  0.15232081    -0.01900
C1686       C  0.23030567  0.96616033  0.13128784     0.03100
C1687       C  0.21172609  0.70221944  0.04290013     0.37700
C1688       C  0.29086920  0.94926128  0.19350556     0.37700
C1689       C  0.21095929  0.94384065  0.14948001     0.36100
C1690       C  0.29162620  0.70316473  0.08775862     0.36100
N1691       N  0.19557866  0.92561325  0.16360238    -0.38700
N1692       N  0.30859624  0.72175671  0.07622373    -0.38700
N1693       N  0.30758911  0.93480095  0.22665910    -0.38100
N1694       N  0.19652559  0.71938034  0.01172440    -0.38100
C1695       C  0.77261905  0.99610649  0.88379471    -0.04800
C1696       C  0.79297512  0.67810074  0.86529874    -0.01900
C1697       C  0.83250890  0.67846115  0.88473469     0.03100
C1698       C  0.85197943  0.99403250  0.92133845    -0.04800
C1699       C  0.83279775  0.97798047  0.94328816    -0.01900
C1700       C  0.79330405  0.97935819  0.92481191     0.03100
C1701       C  0.77173020  0.70016476  0.82739899     0.37700
C1702       C  0.85368554  0.96095675  0.98567175     0.37700
C1703       C  0.77386603  0.96273279  0.94748845     0.36100
C1704       C  0.85166309  0.69948861  0.86509957     0.36100
N1705       N  0.75844329  0.94942935  0.96563251    -0.38700
N1706       N  0.86691089  0.71636922  0.84951028    -0.38700
N1707       N  0.87012883  0.94735667  0.01951175    -0.38100
N1708       N  0.75469140  0.71794026  0.79740095    -0.38100
C1709       C  0.11381470  0.90343364  0.91536036    -0.04800
C1710       C  0.11363915  0.86631128  0.91581661    -0.01900
C1711       C  0.13287548  0.84721566  0.89638845     0.03100
C1712       C  0.15063269  0.86483645  0.87395580    -0.04800
C1713       C  0.15008595  0.90179830  0.87245790    -0.01900
C1714       C  0.13270103  0.92100652  0.89399329     0.03100
C1715       C  0.09227753  0.84740812  0.93437230     0.37700
C1716       C  0.16712697  0.92010830  0.84816625     0.37700
C1717       C  0.13586091  0.95890517  0.89563030     0.36100
C1718       C  0.13537112  0.80938433  0.90066693     0.36100
N1719       N  0.13911128  0.98908427  0.89697467    -0.38700
N1720       N  0.13767119  0.77925049  0.90439857    -0.38700
N1721       N  0.18061789  0.93452731  0.82857852    -0.38100
N1722       N  0.07497229  0.83167876  0.94830383    -0.38100
C1723       C  0.27159910  0.82893116  0.87503207    -0.04800
C1724       C  0.29258166  0.84690612  0.85691266    -0.01900
C1725       C  0.33215587  0.84613676  0.87870863     0.03100
C1726       C  0.35090087  0.82547742  0.91720849    -0.04800
C1727       C  0.32963250  0.80728208  0.93498250    -0.01900
C1728       C  0.29019110  0.80932163  0.91416966     0.03100
C1729       C  0.27341423  0.86566054  0.81545496     0.37700
C1730       C  0.34811141  0.78752311  0.97570242     0.37700
C1731       C  0.26840374  0.79058053  0.93241458     0.36100
C1732       C  0.35346475  0.86662515  0.86136098     0.36100
N1733       N  0.25058214  0.77585588  0.94649051    -0.38700
N1734       N  0.37043305  0.88343488  0.84794202    -0.38700
N1735       N  0.36218932  0.77174410  0.00826905    -0.38100
N1736       N  0.25813507  0.88024524  0.78210199    -0.38100
C1737       C  0.65450207  0.69696648  0.88343086    -0.04800
C1738       C  0.65930587  0.73371515  0.88836121    -0.01900
C1739       C  0.64012716  0.75312950  0.90751428     0.03100
C1740       C  0.61611770  0.73596931  0.92218930    -0.04800
C1741       C  0.61211477  0.69910167  0.91824263    -0.01900
C1742       C  0.63097277  0.67976553  0.89869333     0.03100
C1743       C  0.68366895  0.75164174  0.87315201     0.37700
C1744       C  0.58838163  0.68072765  0.93392217     0.37700
C1745       C  0.62666101  0.64193426  0.89506968     0.36100
C1746       C  0.64629279  0.79065548  0.91363248     0.36100
N1747       N  0.62308209  0.61179649  0.89205638    -0.38700
N1748       N  0.65142806  0.82055585  0.91859342    -0.38700
N1749       N  0.56986365  0.66530372  0.94639375    -0.38100
N1750       N  0.70328915  0.76568312  0.86110816    -0.38100
C1751       C  0.40846025  0.94802253  0.13369460    -0.04800
C1752       C  0.43253119  0.96383632  0.11813944    -0.01900
C1753       C  0.45205904  0.94301852  0.10077850     0.03100
C1754       C  0.44684578  0.90625004  0.09744152    -0.04800
C1755       C  0.42227300  0.89048138  0.11229436    -0.01900
C1756       C  0.40365713  0.91119506  0.13096401     0.03100
C1757       C  0.43687085  0.00166101  0.11935476     0.37700
C1758       C  0.41507949  0.85303744  0.10707269     0.37700
C1759       C  0.38027692  0.89446319  0.14850892     0.36100
C1760       C  0.47856150  0.95950639  0.08779993     0.36100
N1761       N  0.36165422  0.88135742  0.16268837    -0.38700
N1762       N  0.49984773  0.97291703  0.07789427    -0.38700
N1763       N  0.40904197  0.82322472  0.10275047    -0.38100
N1764       N  0.43165023  0.70408677  0.12030233    -0.38100
C1765       C  0.70881582  0.81339753  0.10146043    -0.04800
C1766       C  0.72777073  0.79504350  0.14178185    -0.01900
C1767       C  0.76731448  0.79396572  0.16309926     0.03100
C1768       C  0.78819077  0.81072822  0.14391371    -0.04800
C1769       C  0.76938683  0.82923086  0.10382516    -0.01900
C1770       C  0.72987574  0.83066863  0.08273870     0.03100
C1771       C  0.70672968  0.77847849  0.16246989     0.37700
C1772       C  0.79083071  0.84774111  0.08496325     0.37700
C1773       C  0.71108637  0.84972641  0.04150968     0.36100
C1774       C  0.78659183  0.77590987  0.20508303     0.36100
N1775       N  0.69668270  0.86516644  0.00871558    -0.38700
N1776       N  0.80201424  0.76178342  0.23874622    -0.38700
N1777       N  0.80798463  0.86255886  0.07005977    -0.38100
N1778       N  0.69019087  0.76529459  0.17930531    -0.38100
C1779       C  0.94585010  0.73757086  0.10198225    -0.04800
C1780       C  0.94848637  0.77442162  0.10696561    -0.01900
C1781       C  0.92970484  0.79177884  0.12812325     0.03100
C1782       C  0.90831450  0.77241273  0.14463845    -0.04800
C1783       C  0.90560541  0.73566330  0.13966186    -0.01900
C1784       C  0.92379634  0.71836710  0.11778358     0.03100
C1785       C  0.97090342  0.79458249  0.09091263     0.37700
C1786       C  0.88464475  0.71557456  0.15785636     0.37700
C1787       C  0.91828121  0.68096846  0.10972503     0.36100
C1788       C  0.93189796  0.82969179  0.13240637     0.36100
N1789       N  0.92329551  0.98608460  0.11734574    -0.38700
N1790       N  0.93347337  0.85986893  0.13622788    -0.38700
N1791       N  0.86797485  0.69969686  0.17252756    -0.38100
N1792       N  0.98863704  0.81096083  0.07815996    -0.38100
C1793       C  0.41132768  0.94667673  0.75576414    -0.04800
C1794       C  0.42800067  0.96422384  0.79704000    -0.01900
C1795       C  0.44703212  0.94504700  0.83661825     0.03100
C1796       C  0.44818381  0.90803069  0.83523527    -0.04800
C1797       C  0.43060632  0.89056814  0.79382965    -0.01900
C1798       C  0.41294112  0.90984067  0.75431124     0.03100
C1799       C  0.42496003  0.00198388  0.79874914     0.37700
C1800       C  0.42935959  0.85258971  0.79165107     0.37700
C1801       C  0.39684645  0.89164736  0.71196081     0.36100
C1802       C  0.46670742  0.96358694  0.87840247     0.36100
N1803       N  0.38430044  0.87691343  0.67836219    -0.38700
N1804       N  0.48268653  0.97852136  0.91157347    -0.38700
N1805       N  0.42790453  0.82233540  0.78938721    -0.38100
N1806       N  0.42930608  0.69879626  0.80048500    -0.38100
C1807       C  0.21113566  0.98261408  0.59367668    -0.04800
C1808       C  0.22965048  0.96326606  0.57357379    -0.01900
C1809       C  0.26918421  0.96342496  0.59245632     0.03100
C1810       C  0.29030146  0.98285213  0.63147419    -0.04800
C1811       C  0.27543647  0.66841448  0.65039416    -0.01900
C1812       C  0.23601419  0.66656446  0.63038648     0.03100
C1813       C  0.20803753  0.94449825  0.53236715     0.37700
C1814       C  0.29538911  0.68809017  0.69126031     0.37700
C1815       C  0.21577989  0.68403366  0.65133908     0.36100
C1816       C  0.28818428  0.94295737  0.57240075     0.36100
N1817       N  0.19948293  0.69785251  0.66788915    -0.38700
N1818       N  0.30333289  0.92651783  0.55649264    -0.38700
N1819       N  0.31132458  0.70348458  0.72406747    -0.38100
N1820       N  0.19078602  0.92976497  0.49933535    -0.38100
C1821       C  0.12158447  0.73584375  0.68342736    -0.04800
C1822       C  0.14429350  0.72182276  0.72578015    -0.01900
C1823       C  0.15925156  0.74385787  0.76345722     0.03100
C1824       C  0.15199994  0.78019818  0.75913101    -0.04800
C1825       C  0.12867794  0.79413788  0.71704486    -0.01900
C1826       C  0.11342425  0.77206420  0.67936420     0.03100
C1827       C  0.15339469  0.68485757  0.73056161     0.37700
C1828       C  0.12108231  0.83141735  0.71241475     0.37700
C1829       C  0.08855108  0.78664341  0.63662496     0.36100
C1830       C  0.18189787  0.72902236  0.80687872     0.36100
N1831       N  0.06867302  0.79853770  0.60270975    -0.38700
N1832       N  0.19986001  0.71709304  0.84145862    -0.38700
N1833       N  0.11512654  0.86116349  0.70903499    -0.38100
N1834       N  0.16097520  0.65545243  0.73463498    -0.38100
C1835       C  0.91099359  0.85113168  0.26414552    -0.04800
C1836       C  0.90789907  0.88790434  0.26022899    -0.01900
C1837       C  0.92669157  0.90929272  0.29777653     0.03100
C1838       C  0.94915866  0.89402004  0.33930704    -0.04800
C1839       C  0.95352990  0.85731042  0.34297595    -0.01900
C1840       C  0.93463354  0.83588777  0.30531450     0.03100
C1841       C  0.88643199  0.90381712  0.21718567     0.37700
C1842       C  0.97821070  0.84165740  0.38515422     0.37700
C1843       C  0.93972433  0.79822546  0.30877162     0.36100
C1844       C  0.92206839  0.94702112  0.29380085     0.36100
N1845       N  0.94401648  0.76821701  0.31117722    -0.38700
N1846       N  0.91824743  0.97706830  0.29058850    -0.38700
N1847       N  0.99792213  0.82910737  0.41871223    -0.38100
N1848       N  0.86957712  0.91652314  0.18282754    -0.38100
C1849       C  0.77520757  0.99352800  0.38583877    -0.04800
C1850       C  0.79724534  0.01127762  0.42593005    -0.01900
C1851       C  0.83669897  0.00968162  0.44493605     0.03100
C1852       C  0.85446288  0.99105922  0.42334871    -0.04800
C1853       C  0.83227047  0.97304077  0.38327449    -0.01900
C1854       C  0.79277766  0.97400909  0.36488242     0.03100
C1855       C  0.78174266  0.68446542  0.44651590     0.37700
C1856       C  0.84986690  0.95412584  0.36026540     0.37700
C1857       C  0.77007141  0.95431765  0.32481112     0.36100
C1858       C  0.86108556  0.67696746  0.49094523     0.36100
N1859       N  0.75178379  0.93852561  0.29301638    -0.38700
N1860       N  0.87730274  0.68680128  0.52712231    -0.38700
N1861       N  0.86362396  0.93895553  0.34166885    -0.38100
N1862       N  0.76625482  0.69895897  0.46358388    -0.38100
C1863       C  0.61536831  0.73265275  0.18394908    -0.04800
C1864       C  0.61975289  0.69597361  0.18243961    -0.01900
C1865       C  0.64184615  0.67739794  0.22155025     0.03100
C1866       C  0.65858811  0.69499428  0.26270503    -0.04800
C1867       C  0.65459173  0.73154736  0.26439689    -0.01900
C1868       C  0.63338118  0.75037241  0.22517993     0.03100
C1869       C  0.60068381  0.67689195  0.14101335     0.37700
C1870       C  0.67304011  0.75001928  0.30640053     0.37700
C1871       C  0.63207907  0.78826715  0.22718859     0.36100
C1872       C  0.63474536  0.98108147  0.22304490     0.36100
N1873       N  0.63161515  0.81849885  0.22916735    -0.38700
N1874       N  0.63446276  0.95079354  0.22157250    -0.38700
N1875       N  0.68778628  0.76515528  0.33959817    -0.38100
N1876       N  0.58545914  0.66112807  0.10838902    -0.38100
C1877       C  0.11409332  0.89876423  0.18050575    -0.04800
C1878       C  0.11376613  0.86174114  0.17774854    -0.01900
C1879       C  0.13324174  0.84138561  0.21623884     0.03100
C1880       C  0.15315969  0.85778216  0.25788676    -0.04800
C1881       C  0.15414575  0.89468272  0.26069714    -0.01900
C1882       C  0.13371065  0.91502919  0.22254750     0.03100
C1883       C  0.09178157  0.84443770  0.13567973     0.37700
C1884       C  0.17733877  0.91175284  0.30271434     0.37700
C1885       C  0.13317249  0.95278294  0.22686693     0.36100
C1886       C  0.13419642  0.80354554  0.21290098     0.36100
N1887       N  0.13249409  0.98283846  0.23078599    -0.38700
N1888       N  0.13548800  0.77337966  0.21065217    -0.38700
N1889       N  0.19655852  0.92515624  0.33609601    -0.38100
N1890       N  0.07385220  0.83064065  0.10217665    -0.38100
C1891       C  0.15134182  0.77690902  0.37485919    -0.04800
C1892       C  0.13515549  0.79317583  0.39977994    -0.01900
C1893       C  0.11762295  0.77276367  0.42033909     0.03100
C1894       C  0.11530246  0.73588471  0.41526498    -0.04800
C1895       C  0.12979349  0.71988144  0.38818798    -0.01900
C1896       C  0.14797648  0.74030278  0.36849656     0.03100
C1897       C  0.13605756  0.83101461  0.40388549     0.37700
C1898       C  0.12666216  0.68230365  0.38074037     0.37700
C1899       C  0.16261685  0.72367509  0.34075779     0.36100
C1900       C  0.10075612  0.78998079  0.44538014     0.36100
N1901       N  0.17408845  0.71038293  0.31847774    -0.38700
N1902       N  0.08728015  0.80369218  0.46532179    -0.38700
N1903       N  0.12421932  0.65244296  0.37403766    -0.38100
N1904       N  0.13617167  0.86119817  0.40704539    -0.38100
C1905       C  0.35301822  0.82309197  0.42160378    -0.04800
C1906       C  0.33171486  0.84290350  0.43767005    -0.01900
C1907       C  0.29221923  0.84029314  0.41705137     0.03100
C1908       C  0.27359696  0.81742650  0.38079071    -0.04800
C1909       C  0.29463249  0.79691529  0.36530211    -0.01900
C1910       C  0.33414128  0.79990834  0.38527158     0.03100
C1911       C  0.35021648  0.86487332  0.47670008     0.37700
C1912       C  0.27551160  0.77241854  0.32905053     0.37700
C1913       C  0.35510298  0.77966246  0.36749704     0.36100
C1914       C  0.27056007  0.86123656  0.43315373     0.36100
N1915       N  0.37170744  0.76343027  0.35328212    -0.38700
N1916       N  0.25322580  0.87786170  0.44597572    -0.38700
N1917       N  0.26020884  0.75275279  0.30031624    -0.38100
N1918       N  0.36442994  0.88232262  0.50800168    -0.38100
C1919       C  0.61361707  0.91740669  0.68652547    -0.04800
C1920       C  0.61165476  0.95440019  0.68440803    -0.01900
C1921       C  0.62874222  0.97470755  0.72356243     0.03100
C1922       C  0.64808593  0.95818393  0.76502726    -0.04800
C1923       C  0.64873285  0.92129068  0.76735910    -0.01900
C1924       C  0.63203205  0.90100060  0.72831739     0.03100
C1925       C  0.59152179  0.97174252  0.64218031     0.37700
C1926       C  0.66616558  0.90412691  0.81016250     0.37700
C1927       C  0.63543884  0.86318182  0.73127189     0.36100
C1928       C  0.62681497  0.01265285  0.72120119     0.36100
N1929       N  0.63865212  0.83307242  0.73404212    -0.38700
N1930       N  0.63277590  0.70392671  0.71935794    -0.38700
N1931       N  0.67979859  0.89033173  0.84422735    -0.38100
N1932       N  0.57552375  0.98608000  0.60881192    -0.38100
C1933       C  0.41248669  0.69938047  0.25739072    -0.04800
C1934       C  0.41187548  0.73633477  0.25516179    -0.01900
C1935       C  0.42925001  0.75664755  0.29431814     0.03100
C1936       C  0.44925387  0.74026171  0.33594003    -0.04800
C1937       C  0.45048322  0.70322096  0.33790724    -0.01900
C1938       C  0.43158724  0.68295107  0.29894268     0.03100
C1939       C  0.39376546  0.75350734  0.21242906     0.37700
C1940       C  0.47175409  0.68572111  0.37980776     0.37700
C1941       C  0.42820766  0.97381544  0.29421179     0.36100
C1942       C  0.42450716  0.79435663  0.29197680     0.36100
N1943       N  0.42564059  0.94362990  0.29482984    -0.38700
N1944       N  0.42020785  0.82435940  0.29021099    -0.38700
N1945       N  0.48872303  0.67138565  0.41297952    -0.38100
N1946       N  0.37968601  0.76728033  0.17836867    -0.38100
C1947       C  0.45218213  0.73898310  0.60152758    -0.04800
C1948       C  0.45643355  0.70219880  0.60338959    -0.01900
C1949       C  0.43906359  0.68125246  0.62359463     0.03100
C1950       C  0.41742612  0.69687829  0.64237930    -0.04800
C1951       C  0.41436266  0.73373023  0.64215084    -0.01900
C1952       C  0.43129042  0.75468208  0.62137391     0.03100
C1953       C  0.47933326  0.68576814  0.58532196     0.37700
C1954       C  0.39437688  0.75008206  0.66414312     0.37700
C1955       C  0.42594455  0.79231472  0.61889298     0.36100
C1956       C  0.44302025  0.64346868  0.62443032     0.36100
N1957       N  0.42156049  0.82231234  0.61658262    -0.38700
N1958       N  0.44629909  0.61335329  0.62519213    -0.38700
N1959       N  0.37864975  0.76298359  0.68202889    -0.38100
N1960       N  0.49755523  0.67234229  0.57105342    -0.38100
C1961       C  0.65376879  0.95736008  0.38528844    -0.04800
C1962       C  0.65628621  0.92045185  0.38718322    -0.01900
C1963       C  0.63706428  0.90080284  0.40623278     0.03100
C1964       C  0.61510672  0.91781336  0.42367511    -0.04800
C1965       C  0.61269751  0.95477293  0.42194907    -0.01900
C1966       C  0.63167462  0.97444955  0.40248352     0.03100
C1967       C  0.67827774  0.90251082  0.36887327     0.37700
C1968       C  0.59048787  0.97265257  0.43991783     0.37700
C1969       C  0.62894862  0.01236505  0.40080737     0.36100
C1970       C  0.64108419  0.86303269  0.40920272     0.36100
N1971       N  0.62668717  0.04258525  0.39926436    -0.38700
N1972       N  0.64467710  0.83294681  0.41147891    -0.38700
N1973       N  0.57305161  0.98713415  0.45447935    -0.38100
N1974       N  0.69586677  0.88817406  0.35438947    -0.38100
C1975       C  0.71098448  0.83054437  0.60063304    -0.04800
C1976       C  0.73014948  0.81457748  0.57881723    -0.01900
C1977       C  0.76962253  0.81506566  0.59834252     0.03100
C1978       C  0.79029328  0.83177913  0.63958216    -0.04800
C1979       C  0.77128253  0.84803623  0.66131488    -0.01900
C1980       C  0.73174824  0.84687540  0.64226581     0.03100
C1981       C  0.70944427  0.79753516  0.53616879     0.37700
C1982       C  0.79238925  0.86620954  0.70310374     0.37700
C1983       C  0.71260239  0.86048623  0.66683502     0.36100
C1984       C  0.78912105  0.79748517  0.57654815     0.36100
N1985       N  0.69741830  0.87088715  0.68674983    -0.38700
N1986       N  0.80491364  0.78355947  0.55943593    -0.38700
N1987       N  0.80912742  0.88087713  0.73631717    -0.38100
N1988       N  0.69344935  0.78368461  0.50223067    -0.38100
C1989       C  0.90822359  0.78556476  0.75934550    -0.04800
C1990       C  0.90720638  0.74866045  0.75740746    -0.01900
C1991       C  0.92491790  0.72901271  0.79664196     0.03100
C1992       C  0.94401678  0.74624848  0.83803236    -0.04800
C1993       C  0.94459579  0.78324097  0.83982005    -0.01900
C1994       C  0.92615519  0.80279045  0.80064068     0.03100
C1995       C  0.88795083  0.73093919  0.71495399     0.37700
C1996       C  0.96595483  0.80137335  0.88146274     0.37700
C1997       C  0.92501116  0.84070608  0.80270125     0.36100
C1998       C  0.92280542  0.69104258  0.79432232     0.36100
N1999       N  0.92368720  0.87092596  0.80398598    -0.38700
N2000       N  0.92089647  0.66078947  0.79214509    -0.38700
N2001       N  0.98337669  0.81617519  0.91434628    -0.38100
N2002       N  0.87254726  0.71681953  0.68109888    -0.38100
C2003       C  0.94980582  0.90351869  0.60100978    -0.04800
C2004       C  0.95110303  0.86647134  0.60155483    -0.01900
C2005       C  0.93275405  0.84693807  0.62192166     0.03100
C2006       C  0.91341672  0.86432249  0.64249580    -0.04800
C2007       C  0.91324260  0.90131523  0.64327561    -0.01900
C2008       C  0.93082687  0.92079432  0.62210497     0.03100
C2009       C  0.97227648  0.84838490  0.58232713     0.37700
C2010       C  0.89542144  0.91938793  0.66666402     0.37700
C2011       C  0.92819949  0.95868597  0.62075011     0.36100
C2012       C  0.93330457  0.80895198  0.62098451     0.36100
N2013       N  0.92597848  0.98890133  0.61950743    -0.38700
N2014       N  0.93393001  0.77866731  0.62010696    -0.38700
N2015       N  0.88129795  0.93359455  0.68554587    -0.38100
N2016       N  0.98932004  0.83389388  0.56724384    -0.38100
loop_ 
_geom_bond_atom_site_label_1 
_geom_bond_atom_site_label_2 
_geom_bond_distance 
_geom_bond_site_symmetry_2 
_ccdc_geom_bond_type 
C1            C2   1.402       .  A
C1            C6   1.407       .  A
C1          C662   1.491       .  S
C2            C3   1.402       .  A
C2            H7   1.084       .  S
C3            C4   1.400       .  A
C3          C634   1.482       .  S
C4            C5   1.399       .  A
C4            H8   1.084       .  S
C5            C6   1.406       .  A
C5          C645   1.488       .  S
C6            H9   1.084       .  S
Zr10         O11   2.438       .  S
Zr10         O12   2.436       .  S
Zr10         O13   2.448       .  S
Zr10         O16   2.447       .  S
Zr10         O18   2.384       .  S
Zr10         O19   2.382       .  S
Zr10         O20   2.411       .  S
Zr10         O21   2.408       .  S
O11          H67   0.991       .  S
O11          H75   0.989       .  S
O12          C32   1.284       .  A
O13          C34   1.287       .  A
O14         Zr24   2.431       .  S
O14          C33   1.284       .  A
O15         Zr23   2.428       .  S
O15          C34   1.284       .  A
O16          C33   1.287       .  A
O17         Zr25   2.423       .  S
O17          C32   1.282       .  A
O18         Zr23   2.395       .  S
O18         Zr25   2.374       .  S
O19         Zr24   2.388       .  S
O19         Zr25   2.380       .  S
O19          H54   0.967       .  S
O20         Zr23   2.402       .  S
O20         Zr40   2.400       .  S
O20          H57   0.965       .  S
O21         Zr24   2.398       .  S
O21         Zr40   2.409       .  S
Zr22         O47   2.431       .  S
Zr22         O41   2.414       .  S
Zr22         O49   2.442       .  S
Zr22         O37   2.451       .  S
Zr22         O28   2.402       .  S
Zr22         O29   2.403       .  S
Zr22         O30   2.384       .  S
Zr22         O31   2.387       .  S
Zr23         O42   2.439       .  S
Zr23         O35   2.434       .  S
Zr23         O36   2.433       .  S
Zr23         O29   2.399       .  S
Zr23         O30   2.392       .  S
Zr24         O26   2.434       .  S
Zr24         O48   2.435       .  S
Zr24         O50   2.435       .  S
Zr24         O28   2.390       .  S
Zr24         O31   2.390       .  S
Zr25         O51   2.434       .  S
Zr25         O52   2.434       .  S
Zr25         O27   2.436       .  S
Zr25         O28   2.397       .  S
Zr25         O29   2.387       .  S
O26          H63   0.990       .  S
O27          H58   0.990       .  S
O27          H72   0.990       .  S
O29          H55   0.965       .  S
O30         Zr40   2.371       .  S
O31         Zr40   2.374       .  S
O31          H56   0.962       .  S
C32         C561   1.490       .  S
C33         C592   1.493       .  S
C34         C603   1.492       .  S
O35          H71   0.990       .  S
O36          C38   1.286       .  A
O37          C38   1.288       .  A
C38         C575   1.495       .  S
O39         Zr40   2.436       .  S
O39          H68   0.990       .  S
Zr40         O43   2.436       .  S
Zr40         O44   2.438       .  S
Zr40         O45   2.441       .  S
O41          C46   1.280       .  A
O42          H59   0.990       .  S
O42          H74   0.990       .  S
O43          H60   0.990       .  S
O44          H64   0.990       .  S
O44          H73   0.989       .  S
O45          C46   1.285       .  A
C46         C631   1.481       .  S
O47          H66   0.988       .  S
O47          H70   0.990       .  S
O48          H62   0.990       .  S
O48          H69   0.990       .  S
O49          C53   1.287       .  A
O50          C53   1.286       .  A
O51          H61   0.989       .  S
O52          H65   0.990       .  S
C53         C620   1.495       .  S
C76          C77   1.403       .  A
C76          C81   1.403       .  A
C76         C547   1.486       .  S
C77          C78   1.403       .  A
C77          H82   1.084       .  S
C78          C79   1.401       .  A
C78         C536   1.481       .  S
C79          C80   1.400       .  A
C79          H83   1.084       .  S
C80          C81   1.402       .  A
C80         C564   1.484       .  S
C81          H84   1.084       .  S
C85          C86   1.403       .  A
C85          C90   1.402       .  A
C85         C617   1.486       .  S
C86          C87   1.403       .  A
C86          H91   1.084       .  S
C87          C88   1.402       .  A
C87        C1194   1.487       .  S
C88          C89   1.405       .  A
C88         H764   1.084       .  S
C89          C90   1.403       .  A
C89         C505   1.489       .  S
C90          H93   1.084       .  S
H92        C1432   1.084       .  S
Zr94         O95   2.437       .  S
Zr94         O96   2.422       .  S
Zr94         O97   2.453       .  S
Zr94        O100   2.446       .  S
Zr94        O102   2.383       .  S
Zr94        O103   2.386       .  S
Zr94        O104   2.407   1_655  S
Zr94        O105   2.404   1_655  S
O95         H151   0.990       .  S
O95         H159   0.989       .  S
O96         C116   1.282       .  A
O97         C118   1.288       .  A
O98        Zr108   2.423   1_655  S
O98         C117   1.283       .  A
O99        Zr107   2.428   1_655  S
O99         C118   1.284       .  A
O100        C117   1.288       .  A
O101       Zr109   2.425       .  S
O101       C1460   1.282   1_545  A
O102       Zr107   2.392   1_655  S
O102       Zr781   2.375       .  S
O103       Zr108   2.385   1_655  S
O103       Zr781   2.375       .  S
O103        H138   0.964       .  S
O104       Zr107   2.402       .  S
O104       Zr124   2.401       .  S
O104        H141   0.965       .  S
O105       Zr108   2.397       .  S
O105       Zr124   2.399       .  S
Zr106       O131   2.437       .  S
Zr106       O125   2.416       .  S
Zr106       O133   2.436       .  S
Zr106       O121   2.445       .  S
Zr106       O112   2.401       .  S
Zr106       O113   2.402       .  S
Zr106      O1458   2.385   1_545  S
Zr106      O1459   2.381   1_545  S
Zr107       O126   2.435       .  S
Zr107       O791   2.435       .  S
Zr107       O792   2.437       .  S
Zr107       O114   2.396       .  S
Zr107       O785   2.398       .  S
Zr108       O110   2.434       .  S
Zr108       O804   2.435   1_455  S
Zr108       O806   2.423       .  S
Zr108       O115   2.389       .  S
Zr108       O784   2.394       .  S
Zr109       O135   2.439       .  S
Zr109       O136   2.434       .  S
Zr109       O111   2.435       .  S
Zr109       O112   2.397   1_655  S
Zr109       O113   2.394   1_655  S
Zr109      O1446   2.380   1_545  S
Zr109      O1447   2.376   1_545  S
O110        H147   0.990       .  S
O111        H142   0.990       .  S
O111        H156   0.990       .  S
O112      Zr1452   2.389   1_545  S
O113      Zr1451   2.403   1_545  S
O113        H139   0.963       .  S
O114       Zr124   2.384       .  S
O114       Zr778   2.380       .  S
O115       Zr124   2.371       .  S
O115       Zr778   2.382       .  S
O115        H140   0.964       .  S
C116        C508   1.477       .  S
C116        O773   1.282       .  A
C117        C494   1.490       .  S
C118        C659   1.494       .  S
O119      Zr1451   2.436   1_545  S
O119        H155   0.990       .  S
O120      Zr1451   2.426   1_545  S
O120        C122   1.283       .  A
O121        C122   1.286       .  A
C122        C477   1.486       .  S
O123       Zr124   2.438       .  S
O123        H152   0.990       .  S
Zr124       O127   2.436       .  S
Zr124       O128   2.439       .  S
Zr124       O129   2.425       .  S
O125       C1474   1.281   1_545  A
O126        H143   0.989       .  S
O126        H158   0.990       .  S
O127        H144   0.990       .  S
O128        H148   0.990       .  S
O128        H157   0.990       .  S
O129        C130   1.281       .  A
C130        C463   1.491       .  S
C130        O797   1.286       .  A
O131        H150   0.989       .  S
O131        H154   0.990       .  S
O132      Zr1452   2.436   1_645  S
O132        H146   0.990       .  S
O132        H153   0.990   1_655  S
O133        C137   1.285       .  A
O134      Zr1452   2.434   1_545  S
O134        C137   1.285       .  A
O135        H145   0.990       .  S
O136        H149   0.990   1_655  S
C137        C550   1.489       .  S
C160        C165   1.403       .  A
C160       C1505   1.406   1_545  A
C160        C606   1.488       .  S
C161        C162   1.402       .  A
C161        C832   1.404       .  A
C161        H166   1.084       .  S
C162        C163   1.400       .  A
C162        C449   1.483       .  S
C163        C836   1.399       .  A
C163        H167   1.084       .  S
C164        C165   1.401   1_565  A
C164       C1507   1.400       .  A
C164       C1810   1.482       .  S
C165        H168   1.084       .  S
C169        C170   1.408       .  A
C169        C174   1.406       .  A
C169        C438   1.493       .  S
C170        C171   1.405       .  A
C170        H175   1.084       .  S
C171        C172   1.400       .  A
C171        C424   1.488       .  S
C172        C173   1.401       .  A
C172        H176   1.084       .  S
C173        C174   1.405       .  A
C173        C491   1.487       .  S
C174        H177   1.084       .  S
Zr178       O179   2.433       .  S
Zr178       O180   2.420       .  S
Zr178       O181   2.433   1_554  S
Zr178       O184   2.433       .  S
Zr178       O186   2.377   1_554  S
Zr178       O187   2.378       .  S
Zr178       O188   2.405   1_554  S
Zr178       O189   2.400       .  S
O179        H235   0.990       .  S
O179        H243   0.989       .  S
O180        C200   1.282       .  A
O181        C202   1.285       .  A
O182       Zr192   2.433       .  S
O182        C201   1.285       .  A
O183       Zr191   2.418       .  S
O183        C202   1.282       .  A
O184        C201   1.286       .  A
O185       Zr193   2.443       .  S
O185        C200   1.286       .  A
O186       Zr191   2.389       .  S
O186       Zr193   2.372   1_556  S
O187       Zr192   2.385       .  S
O187       Zr193   2.369       .  S
O187        H222   0.966       .  S
O188       Zr191   2.400       .  S
O188       Zr208   2.398       .  S
O188        H225   0.967       .  S
O189       Zr192   2.392       .  S
O189       Zr208   2.392   1_554  S
Zr190       O215   2.436       .  S
Zr190       O209   2.418       .  S
Zr190       O217   2.437   1_556  S
Zr190       O205   2.441       .  S
Zr190       O196   2.404   1_556  S
Zr190       O197   2.397       .  S
Zr190       O198   2.380       .  S
Zr190       O199   2.388   1_556  S
Zr191       O210   2.438       .  S
Zr191       O203   2.435       .  S
Zr191       O204   2.424       .  S
Zr191       O197   2.388       .  S
Zr191       O198   2.386       .  S
Zr192       O194   2.436       .  S
Zr192       O216   2.436       .  S
Zr192       O218   2.423       .  S
Zr192       O196   2.394       .  S
Zr192       O199   2.392       .  S
Zr193       O219   2.437       .  S
Zr193       O220   2.437       .  S
Zr193       O195   2.433       .  S
Zr193       O196   2.400       .  S
Zr193       O197   2.397   1_554  S
O194        H231   0.990       .  S
O195        H226   0.990       .  S
O195        H240   0.990   1_554  S
O197        H223   0.965       .  S
O198       Zr208   2.380       .  S
O199       Zr208   2.375   1_554  S
O199        H224   0.967       .  S
C200        C421   1.492       .  S
C201        C519   1.489       .  S
C202        C396   1.483       .  S
O203        H239   0.990       .  S
O204        C206   1.283       .  A
O205        C206   1.286       .  A
C206        C452   1.489       .  S
O207       Zr208   2.436       .  S
O207        H236   0.990   1_556  S
Zr208       O211   2.436       .  S
Zr208       O212   2.439   1_556  S
Zr208       O213   2.428       .  S
O209        C214   1.281       .  A
O210        H227   0.990       .  S
O210        H242   0.990       .  S
O211        H228   0.990       .  S
O212        H232   0.990       .  S
O212        H241   0.990       .  S
O213        C214   1.283       .  A
C214        C382   1.477       .  S
O215        H234   0.990       .  S
O215        H238   0.989       .  S
O216        H230   0.990       .  S
O216        H237   0.990       .  S
O217        C221   1.284       .  A
O218        C221   1.283       .  A
O219        H229   0.990       .  S
O220        H233   0.990       .  S
C221        C410   1.483       .  S
C244        C245   1.405       .  A
C244        C249   1.404       .  A
C244        C368   1.492       .  S
C245        C246   1.405       .  A
C245        H250   1.084       .  S
C246        C247   1.399       .  A
C246        C480   1.485       .  S
C247        C248   1.399       .  A
C247        H251   1.084       .  S
C248        C249   1.404       .  A
C248        C379   1.484       .  S
C249        H252   1.084       .  S
C253        C258   1.403       .  A
C253       C1598   1.405       .  A
C253        C393   1.483       .  S
C254        C255   1.405       .  A
C254        C925   1.410       .  A
C254        H259   1.084       .  S
C255        C256   1.399       .  A
C255        C578   1.486       .  S
C256        C929   1.396       .  A
C256        H260   1.084       .  S
C257        C258   1.402   1_565  A
C257       C1600   1.401       .  A
C257       C1695   1.486       .  S
C258        H261   1.084       .  S
C262        C263   1.401       .  A
C262        C267   1.399       .  A
C262        C407   1.480       .  S
C263        C264   1.400       .  A
C263        H268   1.084       .  S
C264        C265   1.402       .  A
C264        C340   1.483       .  S
C265        C266   1.404       .  A
C265        H941   1.084       .  S
C266        C267   1.399       .  A
C266       C1261   1.480       .  S
C267        H270   1.084       .  S
H269       C1609   1.084       .  S
Zr271       O272   2.433       .  S
Zr271       O273   2.434       .  S
Zr271       O274   2.452   1_554  S
Zr271       O277   2.442       .  S
Zr271       O279   2.379   1_554  S
Zr271       O280   2.382       .  S
Zr271       O281   2.408   1_554  S
Zr271       O282   2.408       .  S
O272        H328   0.990       .  S
O272        H336   0.989       .  S
O273        C293   1.284       .  A
O274        C295   1.288       .  A
O275       Zr285   2.426       .  S
O275        C294   1.284       .  A
O276       Zr284   2.442       .  S
O276        C295   1.287       .  A
O277        C294   1.287       .  A
O278       Zr286   2.422       .  S
O278       C1637   1.282   1_545  A
O279       Zr284   2.394       .  S
O279       Zr958   2.373   1_556  S
O280       Zr285   2.393       .  S
O280       Zr958   2.370       .  S
O280        H315   0.967       .  S
O281       Zr284   2.401       .  S
O281       Zr301   2.397   1_455  S
O281        H318   0.966       .  S
O282       Zr285   2.398       .  S
O282       Zr301   2.398   1_454  S
Zr283       O308   2.436       .  S
Zr283       O302   2.425       .  S
Zr283       O310   2.448   1_556  S
Zr283       O298   2.449       .  S
Zr283       O289   2.400   1_656  S
Zr283       O290   2.409   1_655  S
Zr283      O1635   2.384   1_545  S
Zr283      O1636   2.381   1_546  S
Zr284       O303   2.438   1_455  S
Zr284       O968   2.435       .  S
Zr284       O969   2.439   1_455  S
Zr284       O291   2.391   1_455  S
Zr284       O962   2.402       .  S
Zr285       O287   2.437   1_455  S
Zr285       O981   2.434       .  S
Zr285       O983   2.438   1_455  S
Zr285       O292   2.389   1_455  S
Zr285       O961   2.391       .  S
Zr286       O312   2.437       .  S
Zr286       O313   2.436       .  S
Zr286       O288   2.434   1_554  S
Zr286       O289   2.396       .  S
Zr286       O290   2.395   1_554  S
Zr286      O1623   2.375   1_544  S
Zr286      O1624   2.378   1_545  S
O287        H324   0.990       .  S
O288        H319   0.990   1_556  S
O288        H333   0.990       .  S
O289      Zr1629   2.392   1_545  S
O290      Zr1628   2.403   1_545  S
O290        H316   0.965       .  S
O291       Zr301   2.379       .  S
O291       Zr955   2.382       .  S
O292       Zr301   2.378   1_554  S
O292       Zr955   2.385   1_554  S
O292        H317   0.962       .  S
C293        C337   1.488       .  S
C293        O950   1.282       .  A
C294        C533   1.489       .  S
C295        C365   1.502       .  S
O296      Zr1628   2.435   1_545  S
O296        H332   0.990       .  S
O297      Zr1628   2.438   1_645  S
O297        C299   1.286       .  A
O298        C299   1.288       .  A
C299        C648   1.491       .  S
O300       Zr301   2.436       .  S
O300        H329   0.990   1_655  S
Zr301       O304   2.436       .  S
Zr301       O305   2.435   1_556  S
Zr301       O306   2.427       .  S
O302       C1651   1.282   1_545  A
O303        H320   0.990   1_655  S
O303        H335   0.990       .  S
O304        H321   0.990       .  S
O305        H325   0.990   1_554  S
O305        H334   0.989       .  S
O306        C307   1.283       .  A
C307        C354   1.491       .  S
C307        O974   1.285       .  A
O308        H327   0.989       .  S
O308        H331   0.990       .  S
O309      Zr1629   2.435   1_545  S
O309        H323   0.990       .  S
O309        H330   0.990       .  S
O310        C314   1.289       .  A
O311      Zr1629   2.429   1_645  S
O311        C314   1.284       .  A
O312        H322   0.990       .  S
O313        H326   0.990       .  S
C314        C435   1.492       .  S
C337        C342   1.415       .  A
C337       C1010   1.416       .  A
C338        C339   1.409       .  A
C338       C1681   1.416   1_545  A
C338        C343   1.450       .  S
C339       C1684   1.408   1_545  A
C339        C346   1.452       .  S
C340        C341   1.410       .  A
C340       C1011   1.410       .  A
C341        C342   1.411       .  A
C341        C344   1.451       .  S
C342        C345   1.451       .  S
C343        N350   1.157   1_554  T
C344        N349   1.157       .  T
C345        N347   1.157       .  T
C346        N348   1.157       .  T
C351        C356   1.408       .  A
C351       C1024   1.409       .  A
C351        C929   1.480       .  S
C352        C353   1.411       .  A
C352       C1695   1.411   1_545  A
C352        C357   1.452       .  S
C353       C1698   1.416   1_545  A
C353        C360   1.451       .  S
C354        C355   1.419       .  A
C354       C1025   1.418       .  A
C355        C356   1.410       .  A
C355        C358   1.450       .  S
C356        C359   1.453       .  S
C357        N364   1.157       .  T
C358        N363   1.157   1_556  T
C359        N361   1.157       .  T
C360        N362   1.157       .  T
C365        C366   1.420       .  A
C365        C370   1.420       .  A
C366        C367   1.415       .  A
C366        C371   1.449       .  S
C367        C368   1.411       .  A
C367        C374   1.453       .  S
C368        C369   1.411       .  A
C369        C370   1.414       .  A
C369        C372   1.452       .  S
C370        C373   1.451       .  S
C371        N378   1.157       .  T
C372        N377   1.157       .  T
C373        N375   1.157       .  T
C374        N376   1.158       .  T
C379        C380   1.414       .  A
C379        C384   1.413       .  A
C380        C381   1.410       .  A
C380        C385   1.452       .  S
C381        C382   1.412       .  A
C381        C388   1.451       .  S
C382        C383   1.411       .  A
C383        C384   1.407       .  A
C383        C386   1.451       .  S
C384        C387   1.451       .  S
C385        N392   1.157       .  T
C386        N391   1.157   1_556  T
C387        N389   1.157       .  T
C388        N390   1.157       .  T
C393        C394   1.412       .  A
C393        C398   1.410       .  A
C394        C395   1.411       .  A
C394        C399   1.451       .  S
C395        C396   1.417       .  A
C395        C402   1.453       .  S
C396        C397   1.414       .  A
C397        C398   1.408       .  A
C397        C400   1.451       .  S
C398        C401   1.452   1_545  S
C399        N406   1.157       .  T
C400        N405   1.157       .  T
C401        N403   1.157       .  T
C402        N404   1.158       .  T
C407        C408   1.411       .  A
C407        C412   1.410       .  A
C408        C409   1.409       .  A
C408        C413   1.453       .  S
C409        C410   1.415       .  A
C409        C416   1.450       .  S
C410        C411   1.415       .  A
C411        C412   1.408       .  A
C411        C414   1.451       .  S
C412        C415   1.452       .  S
C413       N1092   1.157       .  T
C414        N419   1.157       .  T
C415        N417   1.157       .  T
C416        N418   1.157       .  T
N420       C1757   1.157       .  T
C421        C422   1.418       .  A
C421        C426   1.416       .  A
C422        C423   1.412       .  A
C422        C427   1.452       .  S
C423        C424   1.411       .  A
C423        C430   1.451       .  S
C424        C425   1.411       .  A
C425        C426   1.412       .  A
C425        C428   1.451       .  S
C426        C429   1.450       .  S
C427        N434   1.157       .  T
C428        N433   1.157       .  T
C429        N431   1.157       .  T
C430        N432   1.157       .  T
C435        C436   1.415       .  A
C435        C440   1.417       .  A
C436        C437   1.413       .  A
C436        C441   1.452       .  S
C437        C438   1.413       .  A
C437        C444   1.451       .  S
C438        C439   1.412       .  A
C439        C440   1.413       .  A
C439        C442   1.452       .  S
C440        C443   1.451       .  S
C441        N448   1.157       .  T
C442        N447   1.157       .  T
C443       N1789   1.157   1_545  T
C444        N446   1.157       .  T
N445       C1115   1.157       .  T
C449        C450   1.409       .  A
C449        C454   1.410       .  A
C450        C451   1.410       .  A
C450        C455   1.452       .  S
C451        C452   1.417       .  A
C451        C458   1.450       .  S
C452        C453   1.418       .  A
C453        C454   1.410       .  A
C453        C456   1.452       .  S
C454        C457   1.452       .  S
C455       N1134   1.157       .  T
C456        N461   1.157       .  T
C457        N459   1.157       .  T
C458        N460   1.157       .  T
N462       C1799   1.157       .  T
C463        C464   1.417       .  A
C463       C1140   1.414       .  A
C464        C465   1.414       .  A
C464        C469   1.451       .  S
C465        C466   1.411       .  A
C465        C472   1.452       .  S
C466       C1139   1.412       .  A
C466        C836   1.488       .  S
C467        C468   1.408       .  A
C467       C1810   1.410   1_545  A
C467        C470   1.452       .  S
C468       C1807   1.415   1_545  A
C468        C471   1.452       .  S
C469        N476   1.157       .  T
C470        N475   1.157       .  T
C471        N473   1.157       .  T
C472        N474   1.157       .  T
C477        C478   1.415       .  A
C477        C482   1.415       .  A
C478        C479   1.412       .  A
C478        C483   1.451       .  S
C479        C480   1.412       .  A
C479        C486   1.452       .  S
C480        C481   1.410       .  A
C481        C482   1.410       .  A
C481        C484   1.452       .  S
C482        C485   1.450       .  S
C483        N490   1.157   1_545  T
C484        N489   1.157       .  T
C485        N487   1.157       .  T
C486        N488   1.157       .  T
C491        C492   1.411       .  A
C491        C496   1.412       .  A
C492        C493   1.411       .  A
C492        C497   1.452       .  S
C493        C494   1.416       .  A
C493        C500   1.451       .  S
C494        C495   1.415       .  A
C495        C496   1.413       .  A
C495        C498   1.450       .  S
C496        C499   1.451       .  S
C497        N504   1.157       .  T
C498        N503   1.157       .  T
C499        N501   1.157       .  T
C500        N502   1.157       .  T
C505        C506   1.416       .  A
C505        C510   1.414       .  A
C506        C507   1.411       .  A
C506       C1183   1.451       .  S
C507        C508   1.410       .  A
C507       C1186   1.451       .  S
C508        C509   1.410       .  A
C509        C510   1.409       .  A
C509        C512   1.451       .  S
C510        C513   1.451       .  S
C511       C1850   1.451       .  S
C511        N518   1.157       .  T
C512        N517   1.157       .  T
C513        N515   1.157       .  T
C514       C1851   1.451       .  S
C514        N516   1.157       .  T
C519        C520   1.417       .  A
C519        C524   1.417       .  A
C520        C521   1.411       .  A
C520        C525   1.450       .  S
C521        C522   1.410       .  A
C521       C1872   1.452   1_545  S
C522        C523   1.410       .  A
C522       C1431   1.484       .  S
C523        C524   1.411       .  A
C523        C526   1.452       .  S
C524        C527   1.451       .  S
C525        N532   1.157       .  T
C526        N531   1.157       .  T
C527        N529   1.157       .  T
C528       C1193   1.452       .  S
C528        N530   1.157       .  T
C533        C534   1.416       .  A
C533        C538   1.418       .  A
C534        C535   1.411       .  A
C534        C539   1.449       .  S
C535        C536   1.409       .  A
C535        C542   1.452       .  S
C536        C537   1.409       .  A
C537        C538   1.410       .  A
C537        C540   1.452       .  S
C538        C541   1.451       .  S
C539        N546   1.157       .  T
C540        N545   1.157       .  T
C541        N543   1.157       .  T
C542        N544   1.157       .  T
C547        C548   1.411       .  A
C547        C552   1.411       .  A
C548        C549   1.412       .  A
C548        C553   1.452       .  S
C549        C550   1.415       .  A
C549        C556   1.451       .  S
C550        C551   1.416       .  A
C551        C552   1.412       .  A
C551        C554   1.451       .  S
C552        C555   1.452       .  S
C553        N560   1.157       .  T
C554        N559   1.157   1_545  T
C555        N557   1.157       .  T
C556        N558   1.157       .  T
C561        C562   1.418       .  A
C561        C566   1.417       .  A
C562        C563   1.411       .  A
C562        C567   1.451       .  S
C563        C564   1.410       .  A
C563        C570   1.452       .  S
C564        C565   1.410       .  A
C565        C566   1.411       .  A
C565        C568   1.452       .  S
C566        C569   1.452       .  S
C567        N574   1.157       .  T
C568        N573   1.157       .  T
C569        N571   1.157       .  T
C570        N572   1.157       .  T
C575        C576   1.419       .  A
C575        C580   1.417       .  A
C576        C577   1.414       .  A
C576        C581   1.449       .  S
C577        C578   1.409       .  A
C577        C584   1.452       .  S
C578        C579   1.411       .  A
C579        C580   1.411       .  A
C579        C582   1.452       .  S
C580        C583   1.451       .  S
C581        N588   1.157       .  T
C582        N587   1.157       .  T
C583        N585   1.157       .  T
C584       N1258   1.157       .  T
N586       C1928   1.158       .  T
C589        C590   1.411       .  A
C589        C594   1.411       .  A
C589       C1610   1.486       .  S
C590        C591   1.413       .  A
C590        C595   1.452       .  S
C591        C592   1.417       .  A
C591        C598   1.451       .  S
C592        C593   1.415       .  A
C593        C594   1.412       .  A
C593        C596   1.449       .  S
C594       C1941   1.452   1_545  S
C595        N602   1.158       .  T
C596        N601   1.157   1_545  T
C597       C1266   1.452       .  S
C597        N599   1.157       .  T
C598        N600   1.157       .  T
C603        C604   1.416       .  A
C603        C608   1.417       .  A
C604        C605   1.412       .  A
C604        C609   1.449       .  S
C605        C606   1.410       .  A
C605        C612   1.451   1_545  S
C606        C607   1.412       .  A
C607        C608   1.413       .  A
C607        C610   1.451       .  S
C608        C611   1.452       .  S
C609        N616   1.157   1_545  T
C610        N615   1.157       .  T
C611        N613   1.157       .  T
C612        N614   1.157       .  T
C617        C618   1.410       .  A
C617        C622   1.410       .  A
C618        C619   1.412       .  A
C618        C623   1.452       .  S
C619        C620   1.419       .  A
C619        C626   1.451       .  S
C620        C621   1.418       .  A
C621        C622   1.413       .  A
C621        C624   1.450       .  S
C622        C625   1.452       .  S
C623        N630   1.157       .  T
C624        N629   1.157       .  T
C625        N627   1.157       .  T
C626        N628   1.157       .  T
C631        C632   1.413       .  A
C631        C636   1.415       .  A
C632        C633   1.409       .  A
C632        C637   1.451       .  S
C633        C634   1.411       .  A
C633        C640   1.452       .  S
C634        C635   1.411       .  A
C635        C636   1.410       .  A
C635        C638   1.452       .  S
C636        C639   1.451       .  S
C637        N644   1.157       .  T
C638        N643   1.157       .  T
C639        N641   1.157       .  T
C640        N642   1.157       .  T
C645        C646   1.413       .  A
C645        C650   1.409       .  A
C646        C647   1.414       .  A
C646        C651   1.452       .  S
C647        C648   1.416       .  A
C647        C654   1.451       .  S
C648        C649   1.415       .  A
C649        C650   1.410       .  A
C649        C652   1.449       .  S
C650        C653   1.452       .  S
C651        N658   1.158       .  T
C652        N657   1.157       .  T
C653        N655   1.157       .  T
C654        N656   1.157   1_545  T
C659        C660   1.416       .  A
C659        C664   1.418       .  A
C660        C661   1.412       .  A
C660        C665   1.450       .  S
C661        C662   1.412       .  A
C661        C668   1.452       .  S
C662        C663   1.412       .  A
C663        C664   1.414       .  A
C663        C666   1.452       .  S
C664        C667   1.451       .  S
C665        N672   1.157       .  T
C666        N671   1.157       .  T
C667        N669   1.157       .  T
C668        N670   1.157       .  T
C673        C674   1.401       .  A
C673        C678   1.407       .  A
C673       C1334   1.489       .  S
C674        C675   1.400       .  A
C674        H679   1.084       .  S
C675        C676   1.401       .  A
C675       C1306   1.482       .  S
C676        C677   1.404       .  A
C676        H680   1.084       .  S
C677        C678   1.407       .  A
C677       C1317   1.492       .  S
C678        H681   1.084       .  S
Zr682       O683   2.436       .  S
Zr682       O684   2.424       .  S
Zr682       O685   2.446       .  S
Zr682       O688   2.428       .  S
Zr682       O690   2.379       .  S
Zr682       O691   2.387       .  S
Zr682       O692   2.403       .  S
Zr682       O693   2.402       .  S
O683        H739   0.990       .  S
O683        H747   0.989       .  S
O684        C704   1.283       .  A
O685        C706   1.287       .  A
O686       Zr696   2.423       .  S
O686        C705   1.283       .  A
O687       Zr695   2.425       .  S
O687        C706   1.283       .  A
O688        C705   1.285       .  A
O689       Zr697   2.450       .  S
O689        C704   1.287       .  A
O690       Zr695   2.385       .  S
O690       Zr697   2.373       .  S
O691       Zr696   2.392       .  S
O691       Zr697   2.371       .  S
O691        H726   0.966       .  S
O692       Zr695   2.394       .  S
O692       Zr712   2.397       .  S
O692        H729   0.966       .  S
O693       Zr696   2.395       .  S
O693       Zr712   2.386       .  S
Zr694       O719   2.437       .  S
Zr694       O713   2.439       .  S
Zr694       O721   2.436       .  S
Zr694       O709   2.453       .  S
Zr694       O700   2.407       .  S
Zr694       O701   2.411       .  S
Zr694       O702   2.382       .  S
Zr694       O703   2.382       .  S
Zr695       O714   2.435       .  S
Zr695       O707   2.433       .  S
Zr695       O708   2.419       .  S
Zr695       O701   2.398       .  S
Zr695       O702   2.389       .  S
Zr696       O698   2.435       .  S
Zr696       O720   2.435       .  S
Zr696       O722   2.428       .  S
Zr696       O700   2.390       .  S
Zr696       O703   2.391       .  S
Zr697       O723   2.436       .  S
Zr697       O724   2.436       .  S
Zr697       O699   2.435       .  S
Zr697       O700   2.404       .  S
Zr697       O701   2.402       .  S
O698        H735   0.989       .  S
O699        H730   0.990       .  S
O699        H744   0.989       .  S
O701        H727   0.965       .  S
O702       Zr712   2.381       .  S
O703       Zr712   2.370       .  S
O703        H728   0.962       .  S
C704       C1233   1.492       .  S
C705       C1264   1.479       .  S
C706       C1275   1.491       .  S
O707        H743   0.990       .  S
O708        C710   1.282       .  A
O709        C710   1.288       .  A
C710       C1247   1.490       .  S
O711       Zr712   2.435       .  S
O711        H740   0.990       .  S
Zr712       O715   2.433       .  S
Zr712       O716   2.437       .  S
Zr712       O717   2.420       .  S
O713        C718   1.285       .  A
O714        H731   0.990       .  S
O714        H746   0.990       .  S
O715        H732   0.990       .  S
O716        H736   0.990       .  S
O716        H745   0.989       .  S
O717        C718   1.282       .  A
C718       C1303   1.495       .  S
O719        H738   0.989       .  S
O719        H742   0.990       .  S
O720        H734   0.990       .  S
O720        H741   0.989       .  S
O721        C725   1.286       .  A
O722        C725   1.284       .  A
O723        H733   0.990       .  S
O724        H737   0.990       .  S
C725       C1292   1.485       .  S
C748        C749   1.403       .  A
C748        C753   1.401       .  A
C748       C1219   1.483       .  S
C749        C750   1.403       .  A
C749        H754   1.084       .  S
C750        C751   1.406       .  A
C750       C1208   1.488       .  S
C751        C752   1.404       .  A
C751        H755   1.084       .  S
C752        C753   1.400       .  A
C752       C1236   1.488       .  S
C753        H756   1.084       .  S
C757        C758   1.402       .  A
C757        C762   1.402       .  A
C757       C1289   1.488       .  S
C758        C759   1.403       .  A
C758        H763   1.084       .  S
C759        C760   1.404       .  A
C759       C1866   1.484       .  S
C760        C761   1.405       .  A
C760       H1436   1.084       .  S
C761        C762   1.404       .  A
C761       C1177   1.489       .  S
C762        H765   1.084       .  S
Zr766       O767   2.437       .  S
Zr766       O768   2.430       .  S
Zr766       O769   2.452       .  S
Zr766       O772   2.439       .  S
Zr766       O774   2.381       .  S
Zr766       O775   2.385       .  S
Zr766       O776   2.407   1_655  S
Zr766       O777   2.400   1_655  S
O767        H823   0.990       .  S
O767        H831   0.989       .  S
O768        C788   1.284       .  A
O769        C790   1.288       .  A
O770       Zr780   2.423   1_655  S
O770        C789   1.283       .  A
O771       Zr779   2.431   1_655  S
O771        C790   1.284       .  A
O772        C789   1.287       .  A
O773       Zr781   2.424       .  S
O774       Zr779   2.389   1_655  S
O774      Zr1453   2.378       .  S
O775       Zr780   2.387   1_655  S
O775      Zr1453   2.375       .  S
O775        H810   0.965       .  S
O776       Zr779   2.394       .  S
O776       Zr796   2.404       .  S
O776        H813   0.965       .  S
O777       Zr780   2.390       .  S
O777       Zr796   2.395       .  S
Zr778       O803   2.438       .  S
Zr778       O797   2.441       .  S
Zr778       O805   2.435       .  S
Zr778       O793   2.453       .  S
Zr778       O784   2.411       .  S
Zr778       O785   2.408       .  S
Zr779       O798   2.434       .  S
Zr779      O1463   2.434       .  S
Zr779      O1464   2.425       .  S
Zr779      O1457   2.399       .  S
Zr779       O786   2.398       .  S
Zr780       O782   2.433       .  S
Zr780      O1476   2.438   1_455  S
Zr780      O1478   2.416       .  S
Zr780      O1456   2.398       .  S
Zr780       O787   2.386       .  S
Zr781       O807   2.435       .  S
Zr781       O808   2.436       .  S
Zr781       O783   2.438       .  S
Zr781       O784   2.401   1_655  S
Zr781       O785   2.393   1_655  S
O782        H819   0.990       .  S
O783        H814   0.990       .  S
O783        H828   0.989       .  S
O785        H811   0.963       .  S
O786      Zr1450   2.388       .  S
O786       Zr796   2.384       .  S
O787      Zr1450   2.380       .  S
O787       Zr796   2.374       .  S
O787        H812   0.963       .  S
C788       C1180   1.485       .  S
C788       O1445   1.284       .  A
C789       C1166   1.486       .  S
C790       C1331   1.494       .  S
O791        H827   0.990       .  S
O792        C794   1.285       .  A
O793        C794   1.287       .  A
C794       C1149   1.495       .  S
O795       Zr796   2.437       .  S
O795        H824   0.990       .  S
Zr796       O799   2.435       .  S
Zr796       O800   2.440       .  S
Zr796       O801   2.429       .  S
O798        H815   0.990       .  S
O798        H830   0.990       .  S
O799        H816   0.990       .  S
O800        H820   0.990       .  S
O800        H829   0.990       .  S
O801        C802   1.283       .  A
C802       C1135   1.485       .  S
C802       O1469   1.282       .  A
O803        H822   0.989       .  S
O803        H826   0.990       .  S
O804        H818   0.990   1_655  S
O804        H825   0.990   1_655  S
O805        C809   1.285       .  A
O806        C809   1.283       .  A
O807        H817   0.989       .  S
O808        H821   0.990   1_655  S
C809       C1222   1.485       .  S
C832        C837   1.408       .  A
C832       C1278   1.491       .  S
C833       C1504   1.406       .  A
C833        C834   1.406       .  A
C833        H838   1.084       .  S
C834        C835   1.400       .  A
C834       C1121   1.486       .  S
C835       C1508   1.399       .  A
C835        H839   1.084       .  S
C836        C837   1.406       .  A
C837        H840   1.084       .  S
C841        C842   1.403       .  A
C841        C846   1.406       .  A
C841       C1110   1.491       .  S
C842        C843   1.401       .  A
C842        H847   1.084       .  S
C843        C844   1.399       .  A
C843       C1096   1.479       .  S
C844        C845   1.401       .  A
C844        H848   1.084       .  S
C845        C846   1.404       .  A
C845       C1163   1.486       .  S
C846        H849   1.084       .  S
Zr850       O851   2.435       .  S
Zr850       O852   2.414       .  S
Zr850       O853   2.447   1_554  S
Zr850       O856   2.434       .  S
Zr850       O858   2.377       .  S
Zr850       O859   2.387       .  S
Zr850       O860   2.403   1_554  S
Zr850       O861   2.403       .  S
O851        H907   0.990       .  S
O851        H915   0.989       .  S
O852        C872   1.280       .  A
O853        C874   1.286       .  A
O854       Zr864   2.453       .  S
O854        C873   1.289       .  A
O855       Zr863   2.427       .  S
O855        C874   1.283       .  A
O856        C873   1.286       .  A
O857       Zr865   2.432       .  S
O857        C872   1.284       .  A
O858       Zr863   2.389   1_554  S
O858       Zr865   2.373       .  S
O859       Zr864   2.390       .  S
O859       Zr865   2.375       .  S
O859        H894   0.966       .  S
O860       Zr863   2.398       .  S
O860       Zr880   2.403       .  S
O860        H897   0.968       .  S
O861       Zr864   2.398       .  S
O861       Zr880   2.400   1_554  S
Zr862       O887   2.436       .  S
Zr862       O881   2.432       .  S
Zr862       O889   2.444   1_556  S
Zr862       O877   2.438       .  S
Zr862       O868   2.409   1_556  S
Zr862       O869   2.404       .  S
Zr862       O870   2.384       .  S
Zr862       O871   2.386   1_556  S
Zr863       O882   2.438       .  S
Zr863       O875   2.436       .  S
Zr863       O876   2.431       .  S
Zr863       O869   2.400       .  S
Zr863       O870   2.389       .  S
Zr864       O866   2.435       .  S
Zr864       O888   2.435       .  S
Zr864       O890   2.440       .  S
Zr864       O868   2.402       .  S
Zr864       O871   2.396       .  S
Zr865       O891   2.437       .  S
Zr865       O892   2.437       .  S
Zr865       O867   2.435   1_554  S
Zr865       O868   2.405       .  S
Zr865       O869   2.393   1_554  S
O866        H903   0.990       .  S
O867        H898   0.990   1_556  S
O867        H912   0.990       .  S
O869        H895   0.965       .  S
O870       Zr880   2.379       .  S
O871       Zr880   2.373   1_554  S
O871        H896   0.966       .  S
C872       C1093   1.482       .  S
C873       C1191   1.501       .  S
C874       C1068   1.490       .  S
O875        H911   0.990       .  S
O876        C878   1.285       .  A
O877        C878   1.286       .  A
C878       C1124   1.490       .  S
O879       Zr880   2.436       .  S
O879        H908   0.990   1_556  S
Zr880       O883   2.436       .  S
Zr880       O884   2.436   1_556  S
Zr880       O885   2.443       .  S
O881        C886   1.284       .  A
O882        H899   0.990       .  S
O882        H914   0.989       .  S
O883        H900   0.990       .  S
O884        H904   0.988       .  S
O884        H913   0.990       .  S
O885        C886   1.286       .  A
C886       C1054   1.492       .  S
O887        H906   0.990       .  S
O887        H910   0.989   1_556  S
O888        H902   0.990       .  S
O888        H909   0.990       .  S
O889        C893   1.286       .  A
O890        C893   1.286       .  A
O891        H901   0.990       .  S
O892        H905   0.990       .  S
C893       C1082   1.491       .  S
C916        C917   1.411       .  A
C916        C921   1.407       .  A
C916       C1040   1.502       .  S
C917        C918   1.409       .  A
C917        H922   1.083       .  S
C918        C919   1.402       .  A
C918       C1152   1.494       .  S
C919        C920   1.401       .  A
C919        H923   1.084       .  S
C920        C921   1.407       .  A
C920       C1051   1.493       .  S
C921        H924   1.084       .  S
C925        C930   1.406       .  A
C925       C1065   1.494       .  S
C926       C1597   1.407       .  A
C926        C927   1.405       .  A
C926        H931   1.084       .  S
C927        C928   1.401       .  A
C927       C1250   1.486       .  S
C928       C1601   1.399       .  A
C928        H932   1.084       .  S
C929        C930   1.402       .  A
C930        H933   1.084       .  S
C934        C935   1.404       .  A
C934        C939   1.411       .  A
C934       C1079   1.497       .  S
C935        C936   1.402       .  A
C935        H940   1.084       .  S
C936        C937   1.400       .  A
C936       C1012   1.482       .  S
C937        C938   1.402       .  A
C937       H1613   1.084       .  S
C938        C939   1.408       .  A
C938       C1933   1.492       .  S
C939        H942   1.083       .  S
Zr943       O944   2.437       .  S
Zr943       O945   2.415       .  S
Zr943       O946   2.470   1_554  S
Zr943       O949   2.440       .  S
Zr943       O951   2.377   1_554  S
Zr943       O952   2.391       .  S
Zr943       O953   2.398   1_554  S
Zr943       O954   2.406       .  S
O944       H1000   0.991       .  S
O944       H1008   0.989       .  S
O945        C965   1.280       .  A
O946        C967   1.291       .  A
O947       Zr957   2.431       .  S
O947        C966   1.285       .  A
O948       Zr956   2.434       .  S
O948        C967   1.284       .  A
O949        C966   1.286       .  A
O950       Zr958   2.426       .  S
O951       Zr956   2.393       .  S
O951      Zr1630   2.374   1_556  S
O952       Zr957   2.398       .  S
O952      Zr1630   2.379       .  S
O952        H987   0.966       .  S
O953       Zr956   2.395       .  S
O953       Zr973   2.397   1_455  S
O953        H990   0.966       .  S
O954       Zr957   2.405       .  S
O954       Zr973   2.396   1_454  S
Zr955       O980   2.438       .  S
Zr955       O974   2.433       .  S
Zr955       O982   2.439   1_556  S
Zr955       O970   2.453       .  S
Zr955       O961   2.401   1_656  S
Zr955       O962   2.404   1_655  S
Zr956       O975   2.435   1_455  S
Zr956      O1640   2.436       .  S
Zr956      O1641   2.419   1_455  S
Zr956      O1634   2.405       .  S
Zr956       O963   2.387   1_455  S
Zr957       O959   2.436       .  S
Zr957      O1653   2.438       .  S
Zr957      O1655   2.443   1_455  S
Zr957      O1633   2.391       .  S
Zr957       O964   2.385   1_455  S
Zr958       O984   2.436       .  S
Zr958       O985   2.434       .  S
Zr958       O960   2.433   1_554  S
Zr958       O961   2.400       .  S
Zr958       O962   2.393   1_554  S
O959        H996   0.990       .  S
O960        H991   0.990   1_556  S
O960       H1005   0.990       .  S
O962        H988   0.964       .  S
O963      Zr1627   2.378       .  S
O963       Zr973   2.372       .  S
O964      Zr1627   2.380   1_554  S
O964       Zr973   2.375   1_554  S
O964        H989   0.963       .  S
C965       C1009   1.486       .  S
C965       O1622   1.283       .  A
C966       C1205   1.490       .  S
C967       C1037   1.503       .  S
O968       H1004   0.990       .  S
O969        C971   1.286       .  A
O970        C971   1.288       .  A
C971       C1320   1.496       .  S
O972       Zr973   2.436       .  S
O972       H1001   0.990   1_655  S
Zr973       O976   2.435       .  S
Zr973       O977   2.438   1_556  S
Zr973       O978   2.422       .  S
O975        H992   0.990       .  S
O975       H1007   0.990   1_655  S
O976        H993   0.990       .  S
O977        H997   0.990       .  S
O977       H1006   0.990       .  S
O978        C979   1.282       .  A
C979       C1026   1.486       .  S
C979       O1646   1.285       .  A
O980        H999   0.990       .  S
O980       H1003   0.990       .  S
O981        H995   0.990       .  S
O981       H1002   0.990       .  S
O982        C986   1.286       .  A
O983        C986   1.285       .  A
O984        H994   0.990       .  S
O985        H998   0.990       .  S
C986       C1107   1.490       .  S
C1009      C1682   1.415       .  A
C1009      C1014   1.418       .  A
C1010      C1011   1.410       .  A
C1010      C1015   1.451       .  S
C1011      C1018   1.452       .  S
C1012      C1683   1.410       .  A
C1012      C1013   1.410       .  A
C1013      C1014   1.410       .  A
C1013      C1016   1.451       .  S
C1014      C1017   1.453       .  S
C1015      N1022   1.157   1_554  T
C1016      N1021   1.157       .  T
C1017      N1019   1.158       .  T
C1018      N1020   1.157       .  T
C1023      C1696   1.411       .  A
C1023      C1028   1.409       .  A
C1023      C1601   1.482       .  S
C1024      C1025   1.410       .  A
C1024      C1029   1.451       .  S
C1025      C1032   1.452       .  S
C1026      C1697   1.415       .  A
C1026      C1027   1.417       .  A
C1027      C1028   1.410       .  A
C1027      C1030   1.451       .  S
C1028      C1031   1.452       .  S
C1029      N1036   1.157       .  T
C1030      N1035   1.157   1_556  T
C1031      N1033   1.157       .  T
C1032      N1034   1.157       .  T
C1037      C1038   1.416       .  A
C1037      C1042   1.418       .  A
C1038      C1039   1.417       .  A
C1038      C1043   1.449       .  S
C1039      C1040   1.414       .  A
C1039      C1046   1.451       .  S
C1040      C1041   1.414       .  A
C1041      C1042   1.417       .  A
C1041      C1044   1.451       .  S
C1042      C1045   1.451       .  S
C1043      N1050   1.157       .  T
C1044      N1049   1.157       .  T
C1045      N1047   1.157       .  T
C1046      N1048   1.157       .  T
C1051      C1052   1.414       .  A
C1051      C1056   1.412       .  A
C1052      C1053   1.415       .  A
C1052      C1057   1.452       .  S
C1053      C1054   1.416       .  A
C1053      C1060   1.450       .  S
C1054      C1055   1.414       .  A
C1055      C1056   1.412       .  A
C1055      C1058   1.449       .  S
C1056      C1059   1.451       .  S
C1057      N1064   1.158       .  T
C1058      N1063   1.157   1_556  T
C1059      N1061   1.157       .  T
C1060      N1062   1.157       .  T
C1065      C1066   1.415       .  A
C1065      C1070   1.414       .  A
C1066      C1067   1.412       .  A
C1066      C1071   1.452       .  S
C1067      C1068   1.415       .  A
C1067      C1074   1.451       .  S
C1068      C1069   1.414       .  A
C1069      C1070   1.413       .  A
C1069      C1072   1.450       .  S
C1070      C1073   1.452       .  S
C1071      N1078   1.157       .  T
C1072      N1077   1.157       .  T
C1073      N1075   1.157       .  T
C1074      N1076   1.157       .  T
C1079      C1080   1.415       .  A
C1079      C1084   1.416       .  A
C1080      C1081   1.415       .  A
C1080      C1085   1.451       .  S
C1081      C1082   1.413       .  A
C1081      C1088   1.450       .  S
C1082      C1083   1.414       .  A
C1083      C1084   1.414       .  A
C1083      C1086   1.452       .  S
C1084      C1087   1.451       .  S
C1085      N1764   1.157       .  T
C1086      N1091   1.157       .  T
C1087      N1089   1.157       .  T
C1088      N1090   1.157       .  T
C1093      C1094   1.416       .  A
C1093      C1098   1.414       .  A
C1094      C1095   1.410       .  A
C1094      C1099   1.452       .  S
C1095      C1096   1.410       .  A
C1095      C1102   1.451       .  S
C1096      C1097   1.409       .  A
C1097      C1098   1.407       .  A
C1097      C1100   1.452       .  S
C1098      C1101   1.450       .  S
C1099      N1106   1.157       .  T
C1100      N1105   1.157       .  T
C1101      N1103   1.157       .  T
C1102      N1104   1.157       .  T
C1107      C1108   1.415       .  A
C1107      C1112   1.415       .  A
C1108      C1109   1.412       .  A
C1108      C1113   1.450       .  S
C1109      C1110   1.413       .  A
C1109      C1116   1.452       .  S
C1110      C1111   1.414       .  A
C1111      C1112   1.413       .  A
C1111      C1114   1.452       .  S
C1112      C1115   1.451       .  S
C1113      N1120   1.157       .  T
C1114      N1119   1.157       .  T
C1116      N1118   1.158       .  T
N1117      C1787   1.157       .  T
C1121      C1122   1.411       .  A
C1121      C1126   1.412       .  A
C1122      C1123   1.411       .  A
C1122      C1127   1.452       .  S
C1123      C1124   1.416       .  A
C1123      C1130   1.449       .  S
C1124      C1125   1.417       .  A
C1125      C1126   1.411       .  A
C1125      C1128   1.451       .  S
C1126      C1129   1.452       .  S
C1127      N1806   1.157       .  T
C1128      N1133   1.157       .  T
C1129      N1131   1.157       .  T
C1130      N1132   1.157       .  T
C1135      C1136   1.416       .  A
C1135      C1812   1.415       .  A
C1136      C1137   1.412       .  A
C1136      C1141   1.451       .  S
C1137      C1138   1.411       .  A
C1137      C1144   1.451       .  S
C1138      C1811   1.410       .  A
C1138      C1508   1.482       .  S
C1139      C1140   1.411       .  A
C1139      C1142   1.451       .  S
C1140      C1143   1.451       .  S
C1141      N1148   1.158       .  T
C1142      N1147   1.157       .  T
C1143      N1145   1.157       .  T
C1144      N1146   1.157       .  T
C1149      C1150   1.415       .  A
C1149      C1154   1.417       .  A
C1150      C1151   1.414       .  A
C1150      C1155   1.451       .  S
C1151      C1152   1.414       .  A
C1151      C1158   1.451       .  S
C1152      C1153   1.411       .  A
C1153      C1154   1.415       .  A
C1153      C1156   1.450       .  S
C1154      C1157   1.450       .  S
C1155      N1162   1.157       .  T
C1156      N1161   1.157       .  T
C1157      N1159   1.157       .  T
C1158      N1160   1.157       .  T
C1163      C1164   1.413       .  A
C1163      C1168   1.411       .  A
C1164      C1165   1.410       .  A
C1164      C1169   1.452       .  S
C1165      C1166   1.415       .  A
C1165      C1172   1.451       .  S
C1166      C1167   1.415       .  A
C1167      C1168   1.411       .  A
C1167      C1170   1.451       .  S
C1168      C1171   1.451       .  S
C1169      N1176   1.157       .  T
C1170      N1175   1.157       .  T
C1171      N1173   1.157       .  T
C1172      N1174   1.157       .  T
C1177      C1178   1.413       .  A
C1177      C1182   1.413       .  A
C1178      C1179   1.409       .  A
C1178      C1855   1.451       .  S
C1179      C1180   1.412       .  A
C1179      C1858   1.450       .  S
C1180      C1181   1.415       .  A
C1181      C1182   1.413       .  A
C1181      C1184   1.451       .  S
C1182      C1185   1.451       .  S
C1183      N1190   1.157       .  T
C1184      N1189   1.157       .  T
C1185      N1187   1.157       .  T
C1186      N1188   1.157       .  T
C1191      C1192   1.420       .  A
C1191      C1196   1.420       .  A
C1192      C1193   1.412       .  A
C1192      C1197   1.450       .  S
C1193      C1194   1.408       .  A
C1194      C1195   1.409       .  A
C1195      C1196   1.415       .  A
C1195      C1198   1.452       .  S
C1196      C1199   1.449       .  S
C1197      N1204   1.157       .  T
C1198      N1203   1.157       .  T
C1199      N1201   1.157       .  T
C1200      C1865   1.452       .  S
C1200      N1202   1.157       .  T
C1205      C1206   1.416       .  A
C1205      C1210   1.415       .  A
C1206      C1207   1.414       .  A
C1206      C1211   1.451       .  S
C1207      C1208   1.412       .  A
C1207      C1214   1.451       .  S
C1208      C1209   1.411       .  A
C1209      C1210   1.411       .  A
C1209      C1212   1.452       .  S
C1210      C1213   1.451       .  S
C1211      N1218   1.157       .  T
C1212      N1217   1.157       .  T
C1213      N1215   1.157       .  T
C1214      N1216   1.157       .  T
C1219      C1220   1.411       .  A
C1219      C1224   1.410       .  A
C1220      C1221   1.410       .  A
C1220      C1225   1.451       .  S
C1221      C1222   1.415       .  A
C1221      C1228   1.451       .  S
C1222      C1223   1.416       .  A
C1223      C1224   1.410       .  A
C1223      C1226   1.452       .  S
C1224      C1227   1.452       .  S
C1225      N1232   1.157       .  T
C1226      N1231   1.157       .  T
C1227      N1229   1.157       .  T
C1228      N1230   1.157       .  T
C1233      C1234   1.415       .  A
C1233      C1238   1.417       .  A
C1234      C1235   1.413       .  A
C1234      C1239   1.450       .  S
C1235      C1236   1.412       .  A
C1235      C1242   1.452       .  S
C1236      C1237   1.410       .  A
C1237      C1238   1.413       .  A
C1237      C1240   1.451       .  S
C1238      C1241   1.450       .  S
C1239      N1246   1.157       .  T
C1240      N1245   1.157       .  T
C1241      N1243   1.157       .  T
C1242      N1244   1.157       .  T
C1247      C1248   1.415       .  A
C1247      C1252   1.417       .  A
C1248      C1249   1.412       .  A
C1248      C1253   1.449       .  S
C1249      C1250   1.411       .  A
C1249      C1256   1.452       .  S
C1250      C1251   1.411       .  A
C1251      C1252   1.411       .  A
C1251      C1254   1.452       .  S
C1252      C1255   1.452       .  S
C1253      N1260   1.157       .  T
C1254      N1259   1.157       .  T
C1255      N1257   1.157       .  T
C1256      N1930   1.157       .  T
C1261      C1262   1.410       .  A
C1261      C1266   1.412       .  A
C1262      C1263   1.407       .  A
C1262      C1267   1.452       .  S
C1263      C1264   1.414       .  A
C1263      C1270   1.451       .  S
C1264      C1265   1.414       .  A
C1265      C1266   1.410       .  A
C1265      C1268   1.452       .  S
C1267      N1274   1.157       .  T
C1268      N1273   1.157       .  T
C1269      C1938   1.451       .  S
C1269      N1271   1.157       .  T
C1270      N1272   1.157       .  T
C1275      C1276   1.415       .  A
C1275      C1280   1.417       .  A
C1276      C1277   1.412       .  A
C1276      C1281   1.450       .  S
C1277      C1278   1.413       .  A
C1277      C1284   1.452       .  S
C1278      C1279   1.412       .  A
C1279      C1280   1.413       .  A
C1279      C1282   1.451       .  S
C1280      C1283   1.452       .  S
C1281      N1288   1.157       .  T
C1282      N1287   1.157       .  T
C1283      N1285   1.157       .  T
C1284      N1286   1.157       .  T
C1289      C1290   1.413       .  A
C1289      C1294   1.413       .  A
C1290      C1291   1.410       .  A
C1290      C1295   1.452       .  S
C1291      C1292   1.415       .  A
C1291      C1298   1.451       .  S
C1292      C1293   1.413       .  A
C1293      C1294   1.411       .  A
C1293      C1296   1.451       .  S
C1294      C1297   1.451       .  S
C1295      N1302   1.157       .  T
C1296      N1301   1.157       .  T
C1297      N1299   1.157       .  T
C1298      N1300   1.157       .  T
C1303      C1304   1.421       .  A
C1303      C1308   1.420       .  A
C1304      C1305   1.409       .  A
C1304      C1309   1.451       .  S
C1305      C1306   1.408       .  A
C1305      C1312   1.453       .  S
C1306      C1307   1.409       .  A
C1307      C1308   1.413       .  A
C1307      C1310   1.451       .  S
C1308      C1311   1.451       .  S
C1309      N1316   1.157       .  T
C1310      N1315   1.157       .  T
C1311      N1313   1.157       .  T
C1312      N1314   1.157       .  T
C1317      C1318   1.412       .  A
C1317      C1322   1.412       .  A
C1318      C1319   1.413       .  A
C1318      C1323   1.452       .  S
C1319      C1320   1.415       .  A
C1319      C1326   1.450       .  S
C1320      C1321   1.417       .  A
C1321      C1322   1.416       .  A
C1321      C1324   1.450       .  S
C1322      C1325   1.452       .  S
C1323      N1330   1.157       .  T
C1324      N1329   1.157       .  T
C1325      N1327   1.158       .  T
C1326      N1328   1.157       .  T
C1331      C1332   1.416       .  A
C1331      C1336   1.418       .  A
C1332      C1333   1.414       .  A
C1332      C1337   1.449       .  S
C1333      C1334   1.411       .  A
C1333      C1340   1.452       .  S
C1334      C1335   1.411       .  A
C1335      C1336   1.413       .  A
C1335      C1338   1.452       .  S
C1336      C1339   1.451       .  S
C1337      N1344   1.157       .  T
C1338      N1343   1.157       .  T
C1339      N1341   1.157       .  T
C1340      N1342   1.157       .  T
C1345      C1346   1.405       .  A
C1345      C1350   1.405       .  A
C1345      C2006   1.491       .  S
C1346      C1347   1.402       .  A
C1346      H1351   1.084       .  S
C1347      C1348   1.398       .  A
C1347      C1978   1.483       .  S
C1348      C1349   1.398       .  A
C1348      H1352   1.084       .  S
C1349      C1350   1.406       .  A
C1349      C1989   1.480       .  S
C1350      H1353   1.084       .  S
Zr1354     O1355   2.436       .  S
Zr1354     O1356   2.418       .  S
Zr1354     O1357   2.449       .  S
Zr1354     O1360   2.443       .  S
Zr1354     O1362   2.388       .  S
Zr1354     O1363   2.385       .  S
Zr1354     O1364   2.402       .  S
Zr1354     O1365   2.398       .  S
O1355      H1411   0.990       .  S
O1355      H1419   0.989       .  S
O1356      C1376   1.281       .  A
O1357      C1378   1.287       .  A
O1358     Zr1368   2.435       .  S
O1358      C1377   1.286       .  A
O1359     Zr1367   2.428       .  S
O1359      C1378   1.283       .  A
O1360      C1377   1.286       .  A
O1361     Zr1369   2.443       .  S
O1361      C1376   1.286       .  A
O1362     Zr1367   2.396       .  S
O1362     Zr1369   2.378       .  S
O1363     Zr1368   2.388       .  S
O1363     Zr1369   2.377       .  S
O1363      H1398   0.966       .  S
O1364     Zr1367   2.400       .  S
O1364     Zr1384   2.394       .  S
O1364      H1401   0.966       .  S
O1365     Zr1368   2.397       .  S
O1365     Zr1384   2.393       .  S
Zr1366     O1391   2.438       .  S
Zr1366     O1385   2.440       .  S
Zr1366     O1393   2.439       .  S
Zr1366     O1381   2.449       .  S
Zr1366     O1372   2.410       .  S
Zr1366     O1373   2.410       .  S
Zr1366     O1374   2.383       .  S
Zr1366     O1375   2.381       .  S
Zr1367     O1386   2.434       .  S
Zr1367     O1379   2.435       .  S
Zr1367     O1380   2.425       .  S
Zr1367     O1373   2.401       .  S
Zr1367     O1374   2.392       .  S
Zr1368     O1370   2.434       .  S
Zr1368     O1392   2.436       .  S
Zr1368     O1394   2.439       .  S
Zr1368     O1372   2.392       .  S
Zr1368     O1375   2.392       .  S
Zr1369     O1395   2.437       .  S
Zr1369     O1396   2.437       .  S
Zr1369     O1371   2.438       .  S
Zr1369     O1372   2.405       .  S
Zr1369     O1373   2.397       .  S
O1370      H1407   0.990       .  S
O1371      H1402   0.989       .  S
O1371      H1416   0.990       .  S
O1373      H1399   0.965       .  S
O1374     Zr1384   2.382       .  S
O1375     Zr1384   2.378       .  S
O1375      H1400   0.962       .  S
C1376      C1905   1.493       .  S
C1377      C1936   1.495       .  S
C1378      C1947   1.490       .  S
O1379      H1415   0.989       .  S
O1380      C1382   1.283       .  A
O1381      C1382   1.286       .  A
C1382      C1919   1.488       .  S
O1383     Zr1384   2.437       .  S
O1383      H1412   0.990       .  S
Zr1384     O1387   2.437       .  S
Zr1384     O1388   2.441       .  S
Zr1384     O1389   2.419       .  S
O1385      C1390   1.285       .  A
O1386      H1403   0.990       .  S
O1386      H1418   0.990       .  S
O1387      H1404   0.990       .  S
O1388      H1408   0.989       .  S
O1388      H1417   0.990       .  S
O1389      C1390   1.281       .  A
C1390      C1975   1.484       .  S
O1391      H1410   0.989       .  S
O1391      H1414   0.990       .  S
O1392      H1406   0.990       .  S
O1392      H1413   0.990       .  S
O1393      C1397   1.286       .  A
O1394      C1397   1.286       .  A
O1395      H1405   0.990       .  S
O1396      H1409   0.990       .  S
C1397      C1964   1.490       .  S
C1420      C1421   1.406       .  A
C1420      C1425   1.405       .  A
C1420      C1891   1.490       .  S
C1421      C1422   1.407       .  A
C1421      H1426   1.084       .  S
C1422      C1423   1.402       .  A
C1422      C1880   1.491       .  S
C1423      C1424   1.401       .  A
C1423      H1427   1.084       .  S
C1424      C1425   1.404       .  A
C1424      C1908   1.486       .  S
C1425      H1428   1.084       .  S
C1429      C1430   1.404       .  A
C1429      C1434   1.405       .  A
C1429      C1961   1.491       .  S
C1430      C1431   1.403   1_565  A
C1430      H1435   1.084       .  S
C1431      C1432   1.401       .  A
C1432      C1433   1.401   1_545  A
C1433      C1434   1.403       .  A
C1433      C1849   1.485       .  S
C1434      H1437   1.084       .  S
Zr1438     O1439   2.440       .  S
Zr1438     O1440   2.432       .  S
Zr1438     O1441   2.444       .  S
Zr1438     O1444   2.421       .  S
Zr1438     O1446   2.380       .  S
Zr1438     O1447   2.386       .  S
Zr1438     O1448   2.405   1_655  S
Zr1438     O1449   2.402   1_655  S
O1439      H1495   0.990       .  S
O1439      H1503   0.989       .  S
O1440      C1460   1.283       .  A
O1441      C1462   1.285       .  A
O1442     Zr1452   2.414   1_655  S
O1442      C1461   1.281       .  A
O1443     Zr1451   2.432   1_655  S
O1443      C1462   1.284       .  A
O1444      C1461   1.282       .  A
O1445     Zr1453   2.430       .  S
O1446     Zr1451   2.399   1_655  S
O1447     Zr1452   2.394   1_655  S
O1447      H1482   0.965       .  S
O1448     Zr1451   2.396       .  S
O1448     Zr1468   2.399       .  S
O1448      H1485   0.965       .  S
O1449     Zr1452   2.393       .  S
O1449     Zr1468   2.390       .  S
Zr1450     O1475   2.440       .  S
Zr1450     O1469   2.421       .  S
Zr1450     O1477   2.447       .  S
Zr1450     O1465   2.457       .  S
Zr1450     O1456   2.405       .  S
Zr1450     O1457   2.407       .  S
Zr1451     O1470   2.437       .  S
Zr1451     O1458   2.391       .  S
Zr1452     O1454   2.435       .  S
Zr1452     O1459   2.380       .  S
Zr1453     O1479   2.436       .  S
Zr1453     O1480   2.438       .  S
Zr1453     O1455   2.437       .  S
Zr1453     O1456   2.399   1_655  S
Zr1453     O1457   2.388   1_655  S
O1454      H1491   0.990       .  S
O1455      H1486   0.990       .  S
O1455      H1500   0.990       .  S
O1457      H1483   0.963       .  S
O1458     Zr1468   2.381       .  S
O1459     Zr1468   2.372       .  S
O1459      H1484   0.964       .  S
C1460      C1852   1.487       .  S
C1461      C1838   1.473       .  S
C1462      C2003   1.491       .  S
O1463      H1499   0.990       .  S
O1464      C1466   1.283       .  A
O1465      C1466   1.288       .  A
C1466      C1821   1.489       .  S
O1467     Zr1468   2.438       .  S
O1467      H1496   0.990       .  S
Zr1468     O1471   2.435       .  S
Zr1468     O1472   2.437       .  S
Zr1468     O1473   2.433       .  S
O1470      H1487   0.990       .  S
O1470      H1502   0.990       .  S
O1471      H1488   0.990       .  S
O1472      H1492   0.990       .  S
O1472      H1501   0.990       .  S
O1473      C1474   1.285       .  A
C1474      C1807   1.482       .  S
O1475      H1494   0.989       .  S
O1475      H1498   0.991       .  S
O1476      H1490   0.989       .  S
O1476      H1497   0.990   1_655  S
O1477      C1481   1.288       .  A
O1478      C1481   1.281       .  A
O1479      H1489   0.990       .  S
O1480      H1493   0.990   1_655  S
C1481      C1894   1.493       .  S
C1504      C1509   1.405       .  A
C1504      C1950   1.491       .  S
C1505      C1506   1.405       .  A
C1505      H1510   1.084       .  S
C1506      C1507   1.400       .  A
C1506      C1793   1.486       .  S
C1507      H1511   1.084       .  S
C1508      C1509   1.402       .  A
C1509      H1512   1.084       .  S
C1513      C1514   1.403       .  A
C1513      C1518   1.400       .  A
C1513      C1782   1.484       .  S
C1514      C1515   1.402       .  A
C1514      H1519   1.084       .  S
C1515      C1516   1.401       .  A
C1515      C1768   1.485       .  S
C1516      C1517   1.402       .  A
C1516      H1520   1.084       .  S
C1517      C1518   1.399       .  A
C1517      C1835   1.480       .  S
C1518      H1521   1.084       .  S
Zr1522     O1523   2.433       .  S
Zr1522     O1524   2.429       .  S
Zr1522     O1525   2.438   1_554  S
Zr1522     O1528   2.427       .  S
Zr1522     O1530   2.378   1_554  S
Zr1522     O1531   2.381       .  S
Zr1522     O1532   2.400   1_554  S
Zr1522     O1533   2.402       .  S
O1523      H1579   0.990       .  S
O1523      H1587   0.989       .  S
O1524      C1544   1.283       .  A
O1525      C1546   1.285       .  A
O1526     Zr1536   2.442       .  S
O1526      C1545   1.287       .  A
O1527     Zr1535   2.440       .  S
O1527      C1546   1.286       .  A
O1528      C1545   1.285       .  A
O1529     Zr1537   2.436       .  S
O1529      C1544   1.284       .  A
O1530     Zr1535   2.388       .  S
O1530     Zr1537   2.376   1_556  S
O1531     Zr1536   2.389       .  S
O1531     Zr1537   2.368       .  S
O1531      H1566   0.966       .  S
O1532     Zr1535   2.398       .  S
O1532     Zr1552   2.399       .  S
O1532      H1569   0.967       .  S
O1533     Zr1536   2.398       .  S
O1533     Zr1552   2.399   1_554  S
Zr1534     O1559   2.438       .  S
Zr1534     O1553   2.428       .  S
Zr1534     O1561   2.437   1_556  S
Zr1534     O1549   2.437       .  S
Zr1534     O1540   2.403   1_556  S
Zr1534     O1541   2.403       .  S
Zr1534     O1542   2.378       .  S
Zr1534     O1543   2.380   1_556  S
Zr1535     O1554   2.436       .  S
Zr1535     O1547   2.435       .  S
Zr1535     O1548   2.425       .  S
Zr1535     O1541   2.396       .  S
Zr1535     O1542   2.395       .  S
Zr1536     O1538   2.437       .  S
Zr1536     O1560   2.435       .  S
Zr1536     O1562   2.438       .  S
Zr1536     O1540   2.399       .  S
Zr1536     O1543   2.393       .  S
Zr1537     O1563   2.436       .  S
Zr1537     O1564   2.435       .  S
Zr1537     O1539   2.435       .  S
Zr1537     O1540   2.403       .  S
Zr1537     O1541   2.395   1_554  S
O1538      H1575   0.990       .  S
O1539      H1570   0.990       .  S
O1539      H1584   0.990   1_554  S
O1541      H1567   0.965       .  S
O1542     Zr1552   2.376       .  S
O1543     Zr1552   2.375   1_554  S
O1543      H1568   0.967       .  S
C1544      C1765   1.487       .  S
C1545      C1863   1.490       .  S
C1546      C1740   1.490       .  S
O1547      H1583   0.990       .  S
O1548      C1550   1.284       .  A
O1549      C1550   1.286       .  A
C1550      C1796   1.488       .  S
O1551     Zr1552   2.436       .  S
O1551      H1580   0.990       .  S
Zr1552     O1555   2.437       .  S
Zr1552     O1556   2.437   1_556  S
Zr1552     O1557   2.436       .  S
O1553      C1558   1.282       .  A
O1554      H1571   0.990       .  S
O1554      H1586   0.990       .  S
O1555      H1572   0.990       .  S
O1556      H1576   0.990   1_554  S
O1556      H1585   0.990       .  S
O1557      C1558   1.284       .  A
C1558      C1726   1.488       .  S
O1559      H1578   0.991       .  S
O1559      H1582   0.989       .  S
O1560      H1574   0.990       .  S
O1560      H1581   0.990       .  S
O1561      C1565   1.284       .  A
O1562      C1565   1.286       .  A
O1563      H1573   0.990       .  S
O1564      H1577   0.990       .  S
C1565      C1754   1.489       .  S
C1588      C1589   1.409       .  A
C1588      C1593   1.404       .  A
C1588      C1712   1.495       .  S
C1589      C1590   1.408       .  A
C1589      H1594   1.083       .  S
C1590      C1591   1.401       .  A
C1590      C1824   1.489       .  S
C1591      C1592   1.397       .  A
C1591      H1595   1.084       .  S
C1592      C1593   1.402       .  A
C1592      C1723   1.483       .  S
C1593      H1596   1.084       .  S
C1597      C1602   1.404       .  A
C1597      C1737   1.493       .  S
C1598      C1599   1.402   1_545  A
C1598      H1603   1.084       .  S
C1599      C1600   1.402       .  A
C1599      C1922   1.486       .  S
C1600      H1604   1.084       .  S
C1601      C1602   1.401       .  A
C1602      H1605   1.084       .  S
C1606      C1607   1.404       .  A
C1606      C1611   1.406       .  A
C1606      C1751   1.494       .  S
C1607      C1608   1.402       .  A
C1607      H1612   1.084       .  S
C1608      C1609   1.399   1_565  A
C1608      C1684   1.482       .  S
C1609      C1610   1.401       .  A
C1610      C1611   1.405   1_545  A
C1611      H1614   1.084       .  S
Zr1615     O1616   2.436       .  S
Zr1615     O1617   2.437       .  S
Zr1615     O1618   2.452   1_554  S
Zr1615     O1621   2.453       .  S
Zr1615     O1623   2.380   1_554  S
Zr1615     O1624   2.383       .  S
Zr1615     O1625   2.415   1_554  S
Zr1615     O1626   2.404       .  S
O1616      H1672   0.990       .  S
O1616      H1680   0.989       .  S
O1617      C1637   1.285       .  A
O1618      C1639   1.287       .  A
O1619     Zr1629   2.432       .  S
O1619      C1638   1.285       .  A
O1620     Zr1628   2.443       .  S
O1620      C1639   1.286       .  A
O1621      C1638   1.289       .  A
O1622     Zr1630   2.427       .  S
O1623     Zr1628   2.392       .  S
O1624     Zr1629   2.388       .  S
O1624      H1659   0.966       .  S
O1625     Zr1628   2.400       .  S
O1625     Zr1645   2.408   1_455  S
O1625      H1662   0.966       .  S
O1626     Zr1629   2.394       .  S
O1626     Zr1645   2.398   1_454  S
Zr1627     O1652   2.438       .  S
Zr1627     O1646   2.434       .  S
Zr1627     O1654   2.430   1_556  S
Zr1627     O1642   2.438       .  S
Zr1627     O1633   2.401   1_656  S
Zr1627     O1634   2.403   1_655  S
Zr1628     O1647   2.435   1_455  S
Zr1628     O1635   2.394   1_455  S
Zr1629     O1631   2.435       .  S
Zr1629     O1636   2.389   1_455  S
Zr1630     O1656   2.440       .  S
Zr1630     O1657   2.434       .  S
Zr1630     O1632   2.438   1_554  S
Zr1630     O1633   2.401       .  S
Zr1630     O1634   2.393   1_554  S
O1631      H1668   0.990       .  S
O1632      H1663   0.990   1_556  S
O1632      H1677   0.990       .  S
O1634      H1660   0.965       .  S
O1635     Zr1645   2.376       .  S
O1636     Zr1645   2.367   1_554  S
O1636      H1661   0.960       .  S
C1637      C1681   1.487       .  S
C1638      C1877   1.497       .  S
C1639      C1709   1.499       .  S
O1640      H1676   0.990       .  S
O1641      C1643   1.283       .  A
O1642      C1643   1.286       .  A
C1643      C1992   1.482       .  S
O1644     Zr1645   2.433       .  S
O1644      H1673   0.990   1_655  S
Zr1645     O1648   2.435       .  S
Zr1645     O1649   2.437   1_556  S
Zr1645     O1650   2.443       .  S
O1647      H1664   0.990       .  S
O1647      H1679   0.990       .  S
O1648      H1665   0.989       .  S
O1649      H1669   0.990       .  S
O1649      H1678   0.989       .  S
O1650      C1651   1.286       .  A
C1651      C1698   1.490       .  S
O1652      H1671   0.989       .  S
O1652      H1675   0.990       .  S
O1653      H1667   0.990       .  S
O1653      H1674   0.989       .  S
O1654      C1658   1.284       .  A
O1655      C1658   1.286       .  A
O1656      H1666   0.990       .  S
O1657      H1670   0.990       .  S
C1658      C1779   1.486       .  S
C1681      C1686   1.416       .  A
C1682      C1683   1.409       .  A
C1682      C1687   1.451       .  S
C1683      C1690   1.451       .  S
C1684      C1685   1.411       .  A
C1685      C1686   1.412       .  A
C1685      C1688   1.451       .  S
C1686      C1689   1.452       .  S
C1687      N1694   1.157       .  T
C1688      N1693   1.157       .  T
C1689      N1691   1.158       .  T
C1690      N1692   1.157       .  T
C1695      C1700   1.411       .  A
C1696      C1697   1.411       .  A
C1696      C1701   1.451       .  S
C1697      C1704   1.451       .  S
C1698      C1699   1.416       .  A
C1699      C1700   1.412       .  A
C1699      C1702   1.451       .  S
C1700      C1703   1.451       .  S
C1701      N1708   1.157       .  T
C1702      N1707   1.157   1_556  T
C1703      N1705   1.157       .  T
C1704      N1706   1.157       .  T
C1709      C1710   1.418       .  A
C1709      C1714   1.418       .  A
C1710      C1711   1.415       .  A
C1710      C1715   1.450       .  S
C1711      C1712   1.412       .  A
C1711      C1718   1.452       .  S
C1712      C1713   1.412       .  A
C1713      C1714   1.414       .  A
C1713      C1716   1.452       .  S
C1714      C1717   1.451       .  S
C1715      N1722   1.157       .  T
C1716      N1721   1.157       .  T
C1717      N1719   1.157       .  T
C1718      N1720   1.157       .  T
C1723      C1724   1.410       .  A
C1723      C1728   1.410       .  A
C1724      C1725   1.412       .  A
C1724      C1729   1.451       .  S
C1725      C1726   1.418       .  A
C1725      C1732   1.452       .  S
C1726      C1727   1.415       .  A
C1727      C1728   1.409       .  A
C1727      C1730   1.450       .  S
C1728      C1731   1.453       .  S
C1729      N1736   1.157       .  T
C1730      N1735   1.157   1_556  T
C1731      N1733   1.157       .  T
C1732      N1734   1.157       .  T
C1737      C1738   1.415       .  A
C1737      C1742   1.412       .  A
C1738      C1739   1.413       .  A
C1738      C1743   1.451       .  S
C1739      C1740   1.415       .  A
C1739      C1746   1.451       .  S
C1740      C1741   1.415       .  A
C1741      C1742   1.412       .  A
C1741      C1744   1.449       .  S
C1742      C1745   1.452       .  S
C1743      N1750   1.157       .  T
C1744      N1749   1.157       .  T
C1745      N1747   1.157       .  T
C1746      N1748   1.157       .  T
C1751      C1752   1.414       .  A
C1751      C1756   1.415       .  A
C1752      C1753   1.412       .  A
C1752      C1757   1.452   1_565  S
C1753      C1754   1.415       .  A
C1753      C1760   1.451       .  S
C1754      C1755   1.414       .  A
C1755      C1756   1.413       .  A
C1755      C1758   1.451       .  S
C1756      C1759   1.452       .  S
C1758      N1763   1.157       .  T
C1759      N1761   1.157       .  T
C1760      N1762   1.157       .  T
C1765      C1766   1.415       .  A
C1765      C1770   1.414       .  A
C1766      C1767   1.411       .  A
C1766      C1771   1.450       .  S
C1767      C1768   1.411       .  A
C1767      C1774   1.452       .  S
C1768      C1769   1.411       .  A
C1769      C1770   1.411       .  A
C1769      C1772   1.452       .  S
C1770      C1773   1.450       .  S
C1771      N1778   1.157       .  T
C1772      N1777   1.157       .  T
C1773      N1775   1.157       .  T
C1774      N1776   1.157       .  T
C1779      C1780   1.415       .  A
C1779      C1784   1.414       .  A
C1780      C1781   1.411       .  A
C1780      C1785   1.450       .  S
C1781      C1782   1.413       .  A
C1781      C1788   1.453       .  S
C1782      C1783   1.411       .  A
C1783      C1784   1.410       .  A
C1783      C1786   1.452       .  S
C1784      C1787   1.450       .  S
C1785      N1792   1.157       .  T
C1786      N1791   1.157       .  T
C1788      N1790   1.158       .  T
C1793      C1794   1.412       .  A
C1793      C1798   1.410       .  A
C1794      C1795   1.413       .  A
C1794      C1799   1.451   1_565  S
C1795      C1796   1.416       .  A
C1795      C1802   1.451       .  S
C1796      C1797   1.415       .  A
C1797      C1798   1.408       .  A
C1797      C1800   1.451       .  S
C1798      C1801   1.452       .  S
C1800      N1805   1.157       .  T
C1801      N1803   1.157       .  T
C1802      N1804   1.158       .  T
C1807      C1808   1.415       .  A
C1808      C1809   1.411       .  A
C1808      C1813   1.452       .  S
C1809      C1810   1.411       .  A
C1809      C1816   1.451       .  S
C1811      C1812   1.407       .  A
C1811      C1814   1.452       .  S
C1812      C1815   1.452       .  S
C1813      N1820   1.157       .  T
C1814      N1819   1.157       .  T
C1815      N1817   1.157       .  T
C1816      N1818   1.157       .  T
C1821      C1822   1.414       .  A
C1821      C1826   1.416       .  A
C1822      C1823   1.412       .  A
C1822      C1827   1.451       .  S
C1823      C1824   1.414       .  A
C1823      C1830   1.452       .  S
C1824      C1825   1.411       .  A
C1825      C1826   1.413       .  A
C1825      C1828   1.452       .  S
C1826      C1829   1.450       .  S
C1827      N1834   1.157       .  T
C1828      N1833   1.157       .  T
C1829      N1831   1.157       .  T
C1830      N1832   1.157       .  T
C1835      C1836   1.412       .  A
C1835      C1840   1.412       .  A
C1836      C1837   1.405       .  A
C1836      C1841   1.452       .  S
C1837      C1838   1.411       .  A
C1837      C1844   1.452       .  S
C1838      C1839   1.413       .  A
C1839      C1840   1.409       .  A
C1839      C1842   1.452       .  S
C1840      C1843   1.451       .  S
C1841      N1848   1.157       .  T
C1842      N1847   1.157       .  T
C1843      N1845   1.157       .  T
C1844      N1846   1.157       .  T
C1849      C1850   1.410   1_565  A
C1849      C1854   1.412       .  A
C1850      C1851   1.410       .  A
C1851      C1852   1.415   1_545  A
C1852      C1853   1.416       .  A
C1853      C1854   1.412       .  A
C1853      C1856   1.451       .  S
C1854      C1857   1.452       .  S
C1855      N1862   1.157       .  T
C1856      N1861   1.157       .  T
C1857      N1859   1.157       .  T
C1858      N1860   1.157       .  T
C1863      C1864   1.417       .  A
C1863      C1868   1.417       .  A
C1864      C1865   1.411       .  A
C1864      C1869   1.450       .  S
C1865      C1866   1.410       .  A
C1866      C1867   1.410       .  A
C1867      C1868   1.411       .  A
C1867      C1870   1.451       .  S
C1868      C1871   1.451       .  S
C1869      N1876   1.157       .  T
C1870      N1875   1.157       .  T
C1871      N1873   1.157       .  T
C1872      N1874   1.157       .  T
C1877      C1878   1.416       .  A
C1877      C1882   1.417       .  A
C1878      C1879   1.415       .  A
C1878      C1883   1.448       .  S
C1879      C1880   1.411       .  A
C1879      C1886   1.451       .  S
C1880      C1881   1.411       .  A
C1881      C1882   1.413       .  A
C1881      C1884   1.452       .  S
C1882      C1885   1.450       .  S
C1883      N1890   1.157       .  T
C1884      N1889   1.157       .  T
C1885      N1887   1.157       .  T
C1886      N1888   1.157       .  T
C1891      C1892   1.413       .  A
C1891      C1896   1.410       .  A
C1892      C1893   1.414       .  A
C1892      C1897   1.450       .  S
C1893      C1894   1.416       .  A
C1893      C1900   1.452       .  S
C1894      C1895   1.419       .  A
C1895      C1896   1.412       .  A
C1895      C1898   1.451       .  S
C1896      C1899   1.452       .  S
C1897      N1904   1.157       .  T
C1898      N1903   1.157       .  T
C1899      N1901   1.157       .  T
C1900      N1902   1.157       .  T
C1905      C1906   1.416       .  A
C1905      C1910   1.420       .  A
C1906      C1907   1.411       .  A
C1906      C1911   1.450       .  S
C1907      C1908   1.410       .  A
C1907      C1914   1.451       .  S
C1908      C1909   1.410       .  A
C1909      C1910   1.413       .  A
C1909      C1912   1.451       .  S
C1910      C1913   1.452       .  S
C1911      N1918   1.157       .  T
C1912      N1917   1.157       .  T
C1913      N1915   1.158       .  T
C1914      N1916   1.157       .  T
C1919      C1920   1.415       .  A
C1919      C1924   1.414       .  A
C1920      C1921   1.413       .  A
C1920      C1925   1.449       .  S
C1921      C1922   1.412       .  A
C1921      C1928   1.452   1_565  S
C1922      C1923   1.411       .  A
C1923      C1924   1.409       .  A
C1923      C1926   1.452       .  S
C1924      C1927   1.451       .  S
C1925      N1932   1.156       .  T
C1926      N1931   1.157       .  T
C1927      N1929   1.157       .  T
C1933      C1934   1.413       .  A
C1933      C1938   1.411       .  A
C1934      C1935   1.414       .  A
C1934      C1939   1.451       .  S
C1935      C1936   1.416       .  A
C1935      C1942   1.451       .  S
C1936      C1937   1.416       .  A
C1937      C1938   1.414       .  A
C1937      C1940   1.450       .  S
C1939      N1946   1.157       .  T
C1940      N1945   1.157       .  T
C1941      N1943   1.157       .  T
C1942      N1944   1.157       .  T
C1947      C1948   1.414       .  A
C1947      C1952   1.415       .  A
C1948      C1949   1.412       .  A
C1948      C1953   1.449       .  S
C1949      C1950   1.412       .  A
C1949      C1956   1.452       .  S
C1950      C1951   1.413       .  A
C1951      C1952   1.414       .  A
C1951      C1954   1.451       .  S
C1952      C1955   1.451       .  S
C1953      N1960   1.157       .  T
C1954      N1959   1.157       .  T
C1955      N1957   1.157       .  T
C1956      N1958   1.157       .  T
C1961      C1962   1.413       .  A
C1961      C1966   1.414       .  A
C1962      C1963   1.411       .  A
C1962      C1967   1.452       .  S
C1963      C1964   1.414       .  A
C1963      C1970   1.451       .  S
C1964      C1965   1.415       .  A
C1965      C1966   1.414       .  A
C1965      C1968   1.450       .  S
C1966      C1969   1.452   1_565  S
C1967      N1974   1.157       .  T
C1968      N1973   1.157       .  T
C1969      N1971   1.158       .  T
C1970      N1972   1.157       .  T
C1975      C1976   1.415       .  A
C1975      C1980   1.414       .  A
C1976      C1977   1.408       .  A
C1976      C1981   1.451       .  S
C1977      C1978   1.410       .  A
C1977      C1984   1.452       .  S
C1978      C1979   1.413       .  A
C1979      C1980   1.412       .  A
C1979      C1982   1.451       .  S
C1980      C1983   1.451       .  S
C1981      N1988   1.157       .  T
C1982      N1987   1.157       .  T
C1983      N1985   1.157       .  T
C1984      N1986   1.157       .  T
C1989      C1990   1.410       .  A
C1989      C1994   1.409       .  A
C1990      C1991   1.409       .  A
C1990      C1995   1.451       .  S
C1991      C1992   1.415       .  A
C1991      C1998   1.452       .  S
C1992      C1993   1.413       .  A
C1993      C1994   1.409       .  A
C1993      C1996   1.449       .  S
C1994      C1997   1.452       .  S
C1995      N2002   1.157       .  T
C1996      N2001   1.156       .  T
C1997      N1999   1.157       .  T
C1998      N2000   1.157       .  T
C2003      C2004   1.416       .  A
C2003      C2008   1.414       .  A
C2004      C2005   1.415       .  A
C2004      C2009   1.451       .  S
C2005      C2006   1.414       .  A
C2005      C2012   1.451       .  S
C2006      C2007   1.413       .  A
C2007      C2008   1.411       .  A
C2007      C2010   1.452       .  S
C2008      C2011   1.451       .  S
C2009      N2016   1.157       .  T
C2010      N2015   1.157       .  T
C2011      N2013   1.157       .  T
C2012      N2014   1.158       .  T
