geometry optimzed in LAMMPS
_audit_creation_date              2020-11-30 
_audit_creation_method            'lammps2cif' 
_symmetry_space_group_name_H-M    'P1' 
_symmetry_Int_Tables_number       1 
_symmetry_cell_setting            triclinic 
loop_ 
_symmetry_equiv_pos_as_xyz 
  x,y,z 
_cell_length_a                    39.00839193 
_cell_length_b                    38.77718218435775 
_cell_length_c                    30.889452085752154 
_cell_angle_alpha                 80.18424295253931 
_cell_angle_beta                  78.32664442530837 
_cell_angle_gamma                 91.40773225258962 
loop_ 
_atom_site_label 
_atom_site_type_symbol 
_atom_site_fract_x 
_atom_site_fract_y 
_atom_site_fract_z 
_atom_site_charge 
N1          N  0.33817311  0.36661630  0.98906442    -0.02100
C2          C  0.33486773  0.34788878  0.45686504     0.00500
C3          C  0.36316473  0.35474200  0.42112053    -0.22400
C4          C  0.38513919  0.37861331  0.43151422    -0.22600
C5          C  0.36937323  0.38538674  0.97319138     0.00400
H6          H  0.36629476  0.34514492  0.38972258     0.14200
H7          H  0.40899209  0.39139967  0.40985194     0.14200
N8          N  0.04302625  0.39894425  0.02069455    -0.02100
C9          C  0.02793576  0.42995198  0.02509557     0.00500
C10         C  0.03558210  0.44175602  0.06225256    -0.22400
C11         C  0.05638615  0.41835966  0.08054336    -0.22600
C12         C  0.06048061  0.39256900  0.05472464     0.00400
H13         H  0.52512085  0.46389712  0.07653870     0.14200
H14         H  0.06531418  0.41858754  0.11148039     0.14200
N15         N  0.29362040  0.06477592  0.03166979    -0.02100
C16         C  0.30930577  0.03374340  0.03283259     0.00500
C17         C  0.29531819  0.01080042  0.07237902    -0.22400
C18         C  0.27145207  0.02835980  0.09754022    -0.22600
C19         C  0.27132136  0.06122110  0.07221143     0.00400
H20         H  0.30508262  0.48580092  0.08423270     0.14200
H21         H  0.25808367  0.01933300  0.13208289     0.14200
N22         N  0.44040391  0.43944710  0.49101392    -0.35200
N23         N  0.47084468  0.49956990  0.01328384    -0.55800
N24         N  0.40779610  0.03929905  0.01753666    -0.35200
N25         N  0.37547104  0.47665555  0.49827154    -0.55800
C26         C  0.46888855  0.42636261  0.50515788     0.28400
C27         C  0.41522985  0.41312670  0.50147848     0.28400
C28         C  0.42373394  0.05230467  0.04709558     0.28400
C29         C  0.37310697  0.04425945  0.02913901     0.28400
C30         C  0.49985118  0.48339193  0.99747194     0.37000
C31         C  0.48171741  0.03047104  0.02206032     0.37000
C32         C  0.36603873  0.44756293  0.48372788     0.37000
C33         C  0.35168997  0.50038635  0.98998185     0.37000
C34         C  0.46156275  0.39130256  0.52453181    -0.20500
C35         C  0.42790384  0.38269019  0.52111029    -0.20500
C36         C  0.39926502  0.06756652  0.07594765    -0.20500
C37         C  0.36743153  0.06266764  0.06454153    -0.20500
C38         C  0.02935507  0.50538266  0.99339563    -0.21500
C39         C  0.01789108  0.03460370  0.01036012    -0.21500
C40         C  0.33660718  0.45300155  0.46537456    -0.21500
C41         C  0.32732883  0.48637698  0.46971730    -0.21500
C42         C  0.50016336  0.44636654  0.50294693    -0.16900
C43         C  0.38220360  0.41545582  0.49020078    -0.16900
C44         C  0.34626840  0.02968247  0.01139184    -0.16900
C45         C  0.45960639  0.05005032  0.04931181    -0.16900
H46         H  0.47784553  0.37410664  0.54144611     0.16000
H47         H  0.41386330  0.35733694  0.53310475     0.18100
H48         H  0.40367987  0.08017827  0.10318492     0.16000
H49         H  0.34273244  0.07006160  0.08231949     0.16000
H50         H  0.05645940  0.49899032  0.98467795     0.14300
H51         H  0.03458502  0.05535064  0.01540582     0.14300
H52         H  0.32245325  0.43442549  0.45198743     0.14300
H53         H  0.30409369  0.49829794  0.46154058     0.14300
H54         H  0.43893501  0.46419937  0.47258815     0.27600
H55         H  0.41968958  0.02755361  0.99088248     0.27600
N56         N  0.49287264  0.08392256  0.09440842    -0.02100
C57         C  0.49580436  0.07891230  0.13821421     0.00500
C58         C  0.47489277  0.04983444  0.16225297    -0.22400
C59         C  0.45878745  0.03649152  0.13239150    -0.22600
C60         C  0.47033045  0.05768827  0.09085788     0.00400
H61         H  0.47200912  0.03918714  0.19762536     0.14200
H62         H  0.44104946  0.01335033  0.13992343     0.14200
N63         N  0.21118814  0.29032644  0.32248526    -0.04700
N64         N  0.21481733  0.30780374  0.35464714    -0.56800
N65         N  0.23622883  0.26653993  0.22096495    -0.04400
N66         N  0.26159683  0.27206062  0.18452660    -0.59000
N67         N  0.21584221  0.29296304  0.22066061    -0.04000
N68         N  0.22673161  0.31681989  0.18398339    -0.56800
N69         N  0.23195066  0.26405322  0.32237124    -0.03700
N70         N  0.24973732  0.26295475  0.35444100    -0.59300
C71         C  0.23886601  0.29023188  0.37447642     0.97500
C72         C  0.25534001  0.30350916  0.16148367     0.97200
N73         N  0.19377516  0.16138894  0.25490728    -0.04900
N74         N  0.19208893  0.14098932  0.22549284    -0.57400
N75         N  0.22380116  0.18281808  0.34035967    -0.03000
N76         N  0.24751478  0.17399998  0.36478081    -0.58700
N77         N  0.19589905  0.16095719  0.35389477    -0.04900
N78         N  0.20038657  0.13658960  0.38755524    -0.57700
N79         N  0.22136244  0.18369798  0.24095405    -0.02700
N80         N  0.23919165  0.17856872  0.20160756    -0.58800
Mn81       Mn  0.22958448  0.22425870  0.28045462     1.18400
C82         C  0.22037515  0.15184823  0.19238233     0.99500
C83         C  0.23264730  0.14509867  0.39435846     1.00200
N84         N  0.13499755  0.29578671  0.23436492    -0.05000
N85         N  0.13799157  0.31274680  0.19282559    -0.61300
N86         N  0.10201129  0.27793915  0.34581633    -0.03800
N87         N  0.07850609  0.28765602  0.37809685    -0.61900
N88         N  0.12972224  0.30010052  0.33446255    -0.04500
N89         N  0.12551919  0.32543084  0.35839730    -0.61500
N90         N  0.10744091  0.27334781  0.24551613    -0.03400
N91         N  0.09113605  0.27475202  0.21190283    -0.62200
Mn92       Mn  0.17304496  0.29615268  0.27792554     1.10700
C93         C  0.11049703  0.29929751  0.17917397     1.00800
C94         C  0.09352166  0.31738130  0.38563838     1.00800
N95         N  0.11247606  0.16973905  0.37297557    -0.04500
N96         N  0.10346072  0.14911325  0.41258042    -0.59800
N97         N  0.09277024  0.19187617  0.27049669    -0.03800
N98         N  0.07072392  0.18702766  0.24426900    -0.56600
N99         N  0.11322916  0.16558130  0.27372728    -0.05100
N100        N  0.10557576  0.14240554  0.24977635    -0.59400
N101        N  0.09106049  0.19538762  0.37000034    -0.04100
N102        N  0.06696049  0.19261025  0.40739359    -0.56600
Mn103      Mn  0.15373029  0.16333879  0.31482791     1.20200
Mn104      Mn  0.09707249  0.23489000  0.30827481     1.10100
Cl105      Cl  0.16334151  0.22962508  0.29565445    -0.84600
C106        C  0.07521851  0.16381521  0.43376560     0.97800
C107        C  0.07904084  0.15599320  0.23133977     0.97600
C108        C  0.01673132  0.13612168  0.15616835     0.25000
C109        C  0.01901256  0.09974873  0.15845402    -0.23100
C110        C  0.04208910  0.08243370  0.18316749     0.19900
C111        C  0.06211841  0.10082724  0.20564503     0.24900
C112        C  0.05912034  0.13710004  0.20485276    -0.23100
C113        C  0.03641584  0.15460687  0.17932990     0.19800
F114        F  0.03308726  0.18960781  0.17687337    -0.13000
F115        F  0.49434157  0.15350886  0.13309258    -0.15400
F116        F  0.08370495  0.08265955  0.22932017    -0.15400
F117        F  0.04532808  0.04740850  0.18549602    -0.13000
C118        C  0.05010750  0.10944640  0.04983264     0.25000
C119        C  0.01332295  0.10861746  0.05775854    -0.23100
C120        C  0.99696099  0.12932364  0.02687222     0.19900
C121        C  0.01707742  0.14879558  0.48712340     0.24900
C122        C  0.05384228  0.14763697  0.47788997    -0.23100
C123        C  0.07016167  0.12869915  0.51018362     0.19800
F124        F  0.10562725  0.12796127  0.50273908    -0.13000
F125        F  0.06656815  0.08877866  0.07826318    -0.15400
F126        F  0.00049950  0.16697283  0.45664700    -0.15400
F127        F  0.46147851  0.12983214  0.03472142    -0.13000
C128        C  0.22067596  0.08453698  0.11776454     0.25000
C129        C  0.25478937  0.09023961  0.09173159    -0.23100
C130        C  0.27547988  0.11996430  0.09341333     0.19900
C131        C  0.26346528  0.14170579  0.12425967     0.24900
C132        C  0.23068776  0.13376017  0.15386208    -0.23100
C133        C  0.20866224  0.10600896  0.14866787     0.19800
F134        F  0.17627184  0.09803540  0.17538026    -0.13000
F135        F  0.19994869  0.05645660  0.11567672    -0.15400
F136        F  0.28502957  0.16879878  0.12733285    -0.15400
F137        F  0.30873574  0.12588005  0.06886082    -0.13000
C138        C  0.29806315  0.11555655  0.46895519     0.25000
C139        C  0.28243071  0.08286936  0.99237742    -0.23100
C140        C  0.25181487  0.07008290  0.48137425     0.19900
C141        C  0.23626752  0.08990356  0.44915140     0.24900
C142        C  0.25077754  0.12339817  0.42688412    -0.23100
C143        C  0.28240755  0.13571250  0.43652012     0.19800
F144        F  0.29764780  0.16770951  0.41572538    -0.13000
F145        F  0.32787401  0.12836337  0.97834130    -0.15400
F146        F  0.20652539  0.07628900  0.44043741    -0.15400
F147        F  0.23592308  0.03874699  0.50376667    -0.13000
C148        C  0.11025025  0.35753125  0.06862263     0.25000
C149        C  0.07404047  0.35923270  0.07150256    -0.23100
C150        C  0.05075791  0.33546382  0.10424509     0.19900
C151        C  0.06322053  0.31272414  0.13665747     0.24900
C152        C  0.09903108  0.31470839  0.13789664    -0.23100
C153        C  0.12278086  0.33551059  0.10196642     0.19800
F154        F  0.15776184  0.33653299  0.10097283    -0.13000
F155        F  0.13304755  0.38024957  0.03684080    -0.15400
F156        F  0.03957819  0.29219421  0.16995994    -0.15400
F157        F  0.01557317  0.33816336  0.10928225    -0.13000
C158        C  0.07160414  0.39611257  0.44273853     0.25000
C159        C  0.04862079  0.38065690  0.48294361    -0.23100
C160        C  0.03834797  0.34472027  0.48895699     0.19900
C161        C  0.05182751  0.32453046  0.45658445     0.24900
C162        C  0.07642544  0.33956908  0.41765963    -0.23100
C163        C  0.08554119  0.37580915  0.41055131     0.19800
F164        F  0.10863073  0.39151667  0.37288566    -0.13000
F165        F  0.08270596  0.43039848  0.43627504    -0.15400
F166        F  0.04255002  0.28966872  0.46491201    -0.15400
F167        F  0.01654584  0.32844079  0.52720531    -0.13000
C168        C  0.29062110  0.37065159  0.05439353     0.25000
C169        C  0.32090822  0.35526878  0.03543847    -0.23100
C170        C  0.33042733  0.32401331  0.05912942     0.19900
C171        C  0.30952085  0.30758215  0.10012912     0.24900
C172        C  0.27846060  0.32219508  0.11884543    -0.23100
C173        C  0.26965749  0.35444329  0.09585814     0.19800
F174        F  0.24009518  0.36972950  0.11249938    -0.13000
F175        F  0.28047542  0.40047051  0.03183197    -0.15400
F176        F  0.31926873  0.27666951  0.12059984    -0.15400
F177        F  0.35911789  0.30821830  0.04087386    -0.13000
C178        C  0.25286437  0.33648483  0.41699569     0.25000
C179        C  0.25578258  0.30205246  0.40851774    -0.23100
C180        C  0.27880108  0.28024129  0.42863895     0.19900
C181        C  0.30221258  0.29425643  0.45065500     0.24900
C182        C  0.30236861  0.32986168  0.45350736    -0.23100
C183        C  0.27608726  0.35026446  0.43953566     0.19800
F184        F  0.27589580  0.38480932  0.44237698    -0.13000
F185        F  0.23016246  0.35796583  0.39962476    -0.15400
F186        F  0.32690948  0.27399219  0.46536159    -0.15400
F187        F  0.28063111  0.24608312  0.42403819    -0.13000
N188        N  0.33817262  0.36661248  0.48906886    -0.02100
C189        C  0.33486793  0.34789168  0.95686163     0.00500
C190        C  0.36316418  0.35474506  0.92111612    -0.22400
C191        C  0.38513845  0.37861747  0.93150811    -0.22600
C192        C  0.36937336  0.38538224  0.47319745     0.00400
H193        H  0.36629383  0.34514720  0.88971892     0.14200
H194        H  0.40899097  0.39140403  0.90984488     0.14200
N195        N  0.04303042  0.39894356  0.52069429    -0.02100
C196        C  0.02794021  0.42995148  0.52509513     0.00500
C197        C  0.03559046  0.44175759  0.56224887    -0.22400
C198        C  0.05639649  0.41836239  0.58053759    -0.22600
C199        C  0.06048819  0.39257016  0.55472124     0.00400
H200        H  0.52512476  0.46389415  0.57654369     0.14200
H201        H  0.06532704  0.41859171  0.61147265     0.14200
N202        N  0.29362075  0.06477869  0.53166687    -0.02100
C203        C  0.30930510  0.03374561  0.53282883     0.00500
C204        C  0.29531619  0.01080184  0.57237402    -0.22400
C205        C  0.27145046  0.02836125  0.59753563    -0.22600
C206        C  0.27132117  0.06122339  0.57220830     0.00400
H207        H  0.30507934  0.48579985  0.58423707     0.14200
H208        H  0.25808125  0.01933366  0.63207763     0.14200
N209        N  0.44040465  0.43945058  0.99100556    -0.35200
N210        N  0.47084334  0.49956685  0.51329275    -0.55800
N211        N  0.40779522  0.03930044  0.51753527    -0.35200
N212        N  0.37547233  0.47666002  0.99826424    -0.55800
C213        C  0.46888869  0.42636570  0.00515106     0.28400
C214        C  0.41522980  0.41313075  0.00147223     0.28400
C215        C  0.42373292  0.05230571  0.54709449     0.28400
C216        C  0.37310608  0.04426048  0.52913760     0.28400
C217        C  0.49985010  0.48338926  0.49748079     0.37000
C218        C  0.48171664  0.03047280  0.52205851     0.37000
C219        C  0.36603954  0.44756758  0.98372067     0.37000
C220        C  0.35168878  0.50038179  0.48998816     0.37000
C221        C  0.46156161  0.39130634  0.02452792    -0.20500
C222        C  0.42790253  0.38269448  0.02110669    -0.20500
C223        C  0.39926371  0.06756680  0.57594717    -0.20500
C224        C  0.36743027  0.06266798  0.56454080    -0.20500
C225        C  0.02935554  0.50538241  0.49339576    -0.21500
C226        C  0.01789229  0.03460480  0.51035605    -0.21500
C227        C  0.33660770  0.45300645  0.96536799    -0.21500
C228        C  0.32732966  0.48638191  0.96971119    -0.21500
C229        C  0.50016385  0.44636913  0.00293949    -0.16900
C230        C  0.38220377  0.41546025  0.99019421    -0.16900
C231        C  0.34626786  0.02968410  0.51138930    -0.16900
C232        C  0.45960554  0.05005196  0.54931013    -0.16900
H233        H  0.47784357  0.37411078  0.04144435     0.16000
H234        H  0.41386090  0.35734173  0.03310346     0.18100
H235        H  0.40367839  0.08017830  0.60318492     0.16000
H236        H  0.34273094  0.07006193  0.58231879     0.16000
H237        H  0.05646009  0.49899136  0.48467542     0.14300
H238        H  0.03458632  0.05535127  0.51540240     0.14300
H239        H  0.32245314  0.43443033  0.95198160     0.14300
H240        H  0.30409417  0.49830291  0.96153559     0.14300
H241        H  0.43893664  0.46420132  0.97257898     0.27600
H242        H  0.41968914  0.02755548  0.49088010     0.27600
N243        N  0.49287203  0.08392425  0.59440652    -0.02100
C244        C  0.49580386  0.07891378  0.63821224     0.00500
C245        C  0.47489230  0.04983590  0.66225097    -0.22400
C246        C  0.45878686  0.03649313  0.63238957    -0.22600
C247        C  0.47032970  0.05769002  0.59085604     0.00400
H248        H  0.47200886  0.03918842  0.69762319     0.14200
H249        H  0.44104903  0.01335197  0.63992141     0.14200
N250        N  0.21118541  0.29032371  0.82249048    -0.04700
N251        N  0.21481483  0.30780130  0.85465205    -0.56800
N252        N  0.23622695  0.26653709  0.72097002    -0.04400
N253        N  0.26159466  0.27205718  0.68453132    -0.59000
N254        N  0.21584053  0.29296033  0.72066533    -0.04000
N255        N  0.22672970  0.31681667  0.68398755    -0.56800
N256        N  0.23194775  0.26405035  0.82237680    -0.03700
N257        N  0.24973444  0.26295206  0.85444650    -0.59300
C258        C  0.23886339  0.29022944  0.87448155     0.97500
C259        C  0.25533786  0.30350553  0.66148783     0.97200
N260        N  0.19377377  0.16138626  0.75491098    -0.04900
N261        N  0.19208845  0.14098657  0.72549632    -0.57400
N262        N  0.22379800  0.18281517  0.84036499    -0.03000
N263        N  0.24751129  0.17399715  0.86478660    -0.58700
N264        N  0.19589604  0.16095403  0.85389934    -0.04900
N265        N  0.20038345  0.13658624  0.88755984    -0.57700
N266        N  0.22136112  0.18369528  0.74095864    -0.02700
N267        N  0.23919124  0.17856599  0.70161255    -0.58800
Mn268      Mn  0.22958211  0.22425592  0.78045984     1.18400
C269        C  0.22037528  0.15184542  0.69238663     0.99500
C270        C  0.23264393  0.14509562  0.89436384     1.00200
N271        N  0.13499650  0.29578471  0.73436796    -0.05000
N272        N  0.13799187  0.31274451  0.69282825    -0.61300
N273        N  0.10200837  0.27793714  0.84581923    -0.03800
N274        N  0.07850286  0.28765423  0.87809938    -0.61900
N275        N  0.12971965  0.30009806  0.83446637    -0.04500
N276        N  0.12551655  0.32542820  0.85840139    -0.61500
N277        N  0.10743966  0.27334610  0.74551816    -0.03400
N278        N  0.09113594  0.27475029  0.71190378    -0.62200
Mn279      Mn  0.17304293  0.29615021  0.77792986     1.10700
C280        C  0.11049789  0.29929546  0.67917532     1.00800
C281        C  0.09351864  0.31737920  0.88564164     1.00800
N282        N  0.11247295  0.16973702  0.87297801    -0.04500
N283        N  0.10345760  0.14911180  0.91258327    -0.59800
N284        N  0.09276854  0.19187457  0.77049837    -0.03800
N285        N  0.07072251  0.18702637  0.74427020    -0.56600
N286        N  0.11322734  0.16557957  0.77372910    -0.05100
N287        N  0.10557407  0.14240405  0.74977778    -0.59400
N288        N  0.09105753  0.19538572  0.87000230    -0.04100
N289        N  0.06695762  0.19260896  0.90739554    -0.56600
Mn290      Mn  0.15372785  0.16333629  0.81483103     1.20200
Mn291      Mn  0.09707022  0.23488819  0.80827692     1.10100
Cl292      Cl  0.16333923  0.22962265  0.79565819    -0.84600
C293        C  0.07521554  0.16381420  0.93376807     0.97800
C294        C  0.07903942  0.15599197  0.73134082     0.97600
C295        C  0.01673153  0.13612147  0.65616663     0.25000
C296        C  0.01901330  0.09974864  0.65845132    -0.23100
C297        C  0.04208928  0.08243341  0.68316553     0.19900
C298        C  0.06211779  0.10082661  0.70564432     0.24900
C299        C  0.05911938  0.13709928  0.70485281    -0.23100
C300        C  0.03641507  0.15460628  0.67932976     0.19800
F301        F  0.03308555  0.18960699  0.67687475    -0.13000
F302        F  0.49434200  0.15351040  0.63309183    -0.15400
F303        F  0.08370366  0.08265864  0.72932025    -0.15400
F304        F  0.04532832  0.04740823  0.68549394    -0.13000
C305        C  0.05010904  0.10944578  0.54982941     0.25000
C306        C  0.01332452  0.10861779  0.55775518    -0.23100
C307        C  0.99696309  0.12932417  0.52686839     0.19900
C308        C  0.01707482  0.14879497  0.98712684     0.24900
C309        C  0.05383973  0.14763693  0.97789305    -0.23100
C310        C  0.07015966  0.12870027  0.01018691     0.19800
F311        F  0.10562537  0.12796405  0.00274259    -0.13000
F312        F  0.06656907  0.08877729  0.57825999    -0.15400
F313        F  0.00049641  0.16697151  0.95665048    -0.15400
F314        F  0.46147866  0.12983446  0.53471925    -0.13000
C315        C  0.22067595  0.08453718  0.61776439     0.25000
C316        C  0.25478868  0.09024142  0.59172956    -0.23100
C317        C  0.27547841  0.11996667  0.59341136     0.19900
C318        C  0.26346418  0.14170646  0.62426028     0.24900
C319        C  0.23068776  0.13375871  0.65386485    -0.23100
C320        C  0.20866275  0.10600721  0.64867035     0.19800
F321        F  0.17627349  0.09803130  0.67538495    -0.13000
F322        F  0.19994898  0.05645677  0.61567595    -0.15400
F323        F  0.28502781  0.16880002  0.62733336    -0.15400
F324        F  0.30873324  0.12588464  0.56885596    -0.13000
C325        C  0.29806037  0.11555477  0.96896020     0.25000
C326        C  0.28243141  0.08287246  0.49237450    -0.23100
C327        C  0.25181480  0.07007876  0.98137659     0.19900
C328        C  0.23626640  0.08989945  0.94915464     0.24900
C329        C  0.25077459  0.12339514  0.92688922    -0.23100
C330        C  0.28240367  0.13571075  0.93652636     0.19800
F331        F  0.29764181  0.16770913  0.91573417    -0.13000
F332        F  0.32787781  0.12836378  0.47833523    -0.15400
F333        F  0.20652511  0.07628389  0.94043967    -0.15400
F334        F  0.23592459  0.03874186  0.00376771    -0.13000
C335        C  0.11025534  0.35752926  0.56862264     0.25000
C336        C  0.07404583  0.35923328  0.57150191    -0.23100
C337        C  0.05076166  0.33546637  0.60424512     0.19900
C338        C  0.06322265  0.31272532  0.63665774     0.24900
C339        C  0.09903319  0.31470693  0.63789732    -0.23100
C340        C  0.12278432  0.33550772  0.60196723     0.19800
F341        F  0.15776518  0.33652795  0.60097454    -0.13000
F342        F  0.13305416  0.38024582  0.53684047    -0.15400
F343        F  0.03957903  0.29219684  0.66996014    -0.15400
F344        F  0.01557728  0.33816904  0.60928245    -0.13000
C345        C  0.07160437  0.39611161  0.94274088     0.25000
C346        C  0.04861751  0.38065761  0.98294378    -0.23100
C347        C  0.03834122  0.34472195  0.98895582     0.19900
C348        C  0.05182049  0.32453132  0.95658396     0.24900
C349        C  0.07642201  0.33956802  0.91766160    -0.23100
C350        C  0.08554127  0.37580735  0.91055460     0.19800
F351        F  0.10863410  0.39151332  0.87289119    -0.13000
F352        F  0.08270962  0.43039645  0.93627890    -0.15400
F353        F  0.04253877  0.28967054  0.96490988    -0.15400
F354        F  0.01653584  0.32844405  0.02720234    -0.13000
C355        C  0.29061922  0.37064705  0.55439682     0.25000
C356        C  0.32090667  0.35526439  0.53544241    -0.23100
C357        C  0.33042543  0.32400882  0.55913365     0.19900
C358        C  0.30951879  0.30757796  0.60013342     0.24900
C359        C  0.27845841  0.32219095  0.61884926    -0.23100
C360        C  0.26965528  0.35443887  0.59586124     0.19800
F361        F  0.24009264  0.36972493  0.61250168    -0.13000
F362        F  0.28047362  0.40046581  0.53183480    -0.15400
F363        F  0.31926673  0.27666561  0.62060489    -0.15400
F364        F  0.35911598  0.30821360  0.54087846    -0.13000
C365        C  0.25286198  0.33648323  0.91699969     0.25000
C366        C  0.25578126  0.30205104  0.90852123    -0.23100
C367        C  0.27880199  0.28024124  0.92863999     0.19900
C368        C  0.30221446  0.29425773  0.95065358     0.24900
C369        C  0.30236907  0.32986289  0.95350630    -0.23100
C370        C  0.27608565  0.35026410  0.93953760     0.19800
F371        F  0.27589264  0.38480881  0.94237976    -0.13000
F372        F  0.23015796  0.35796293  0.89963134    -0.15400
F373        F  0.32691346  0.27399499  0.96535736    -0.15400
F374        F  0.28063324  0.24608318  0.92403901    -0.13000
N375        N  0.33817295  0.86661384  0.98906739    -0.02100
C376        C  0.33486722  0.84789094  0.45686310     0.00500
C377        C  0.36316383  0.85474367  0.42111803    -0.22400
C378        C  0.38513833  0.87861576  0.43151020    -0.22600
C379        C  0.36937336  0.88538398  0.97319526     0.00400
H380        H  0.36629367  0.84514554  0.38972089     0.14200
H381        H  0.40899114  0.89140183  0.40984727     0.14200
N382        N  0.04302865  0.89894351  0.02069430    -0.02100
C383        C  0.02793862  0.92995140  0.02509569     0.00500
C384        C  0.03558827  0.94175666  0.06225025    -0.22400
C385        C  0.05639377  0.91836089  0.08053903    -0.22600
C386        C  0.06048582  0.89256926  0.05472173     0.00400
H387        H  0.52512366  0.96389495  0.07654162     0.14200
H388        H  0.06532387  0.91858950  0.11147453     0.14200
N389        N  0.29362050  0.56477793  0.03166820    -0.02100
C390        C  0.30930565  0.53374532  0.03282977     0.00500
C391        C  0.29531772  0.51080145  0.07237525    -0.22400
C392        C  0.27145169  0.52836034  0.09753728    -0.22600
C393        C  0.27132130  0.56122225  0.07220989     0.00400
H394        H  0.30508344  0.98580014  0.08423758     0.14200
H395        H  0.25808312  0.51933270  0.13207946     0.14200
N396        N  0.44040421  0.93944895  0.49100872    -0.35200
N397        N  0.47084467  0.99956764  0.01328857    -0.55800
N398        N  0.40779589  0.53930108  0.01753405    -0.35200
N399        N  0.37547172  0.97665898  0.49826592    -0.55800
C400        C  0.46888826  0.92636507  0.50515329     0.28400
C401        C  0.41522957  0.91312986  0.50147362     0.28400
C402        C  0.42373383  0.55230568  0.04709348     0.28400
C403        C  0.37310671  0.54426085  0.02913706     0.28400
C404        C  0.49985125  0.98338959  0.99747692     0.37000
C405        C  0.48171745  0.53047316  0.02205601     0.37000
C406        C  0.36603919  0.94756656  0.48372213     0.37000
C407        C  0.35168988  0.00038360  0.98998579     0.37000
C408        C  0.46156151  0.89130555  0.52452892    -0.20500
C409        C  0.42790261  0.88269357  0.52110718    -0.20500
C410        C  0.39926478  0.56756617  0.07594706    -0.20500
C411        C  0.36743119  0.56266761  0.06454099    -0.20500
C412        C  0.02935444  0.00538237  0.99339725    -0.21500
C413        C  0.01789195  0.53460408  0.01035843    -0.21500
C414        C  0.33660766  0.95300543  0.46536883    -0.21500
C415        C  0.32732958  0.98638092  0.46971176    -0.21500
C416        C  0.50016325  0.94636855  0.50294244    -0.16900
C417        C  0.38220353  0.91545930  0.49019560    -0.16900
C418        C  0.34626830  0.52968465  0.01138900    -0.16900
C419        C  0.45960656  0.55005182  0.04930857    -0.16900
H420        H  0.47784348  0.87410990  0.54144482     0.16000
H421        H  0.41386145  0.85734078  0.53310292     0.18100
H422        H  0.40367965  0.58017701  0.10318520     0.16000
H423        H  0.34273202  0.57006105  0.08231959     0.16000
H424        H  0.05645893  0.99899105  0.98467752     0.14300
H425        H  0.03458613  0.55534993  0.01540623     0.14300
H426        H  0.32245349  0.93442945  0.45198203     0.14300
H427        H  0.30409437  0.99830203  0.46153541     0.14300
H428        H  0.43893567  0.96420554  0.47257867     0.27600
H429        H  0.41968964  0.52755656  0.99087817     0.27600
N430        N  0.49287315  0.58392370  0.09440521    -0.02100
C431        C  0.49580549  0.57891284  0.13821078     0.00500
C432        C  0.47489461  0.54983442  0.16224920    -0.22400
C433        C  0.45878905  0.53649178  0.13238778    -0.22600
C434        C  0.47033118  0.55768928  0.09085451     0.00400
H435        H  0.47201168  0.53918659  0.19762112     0.14200
H436        H  0.44105153  0.51335029  0.13991946     0.14200
N437        N  0.21118603  0.79032462  0.32248862    -0.04700
N438        N  0.21481544  0.80780213  0.35465029    -0.56800
N439        N  0.23622727  0.76653809  0.22096821    -0.04400
N440        N  0.26159525  0.77205859  0.18452981    -0.59000
N441        N  0.21584074  0.79296126  0.22066364    -0.04000
N442        N  0.22673013  0.81681793  0.18398621    -0.56800
N443        N  0.23194848  0.76405134  0.32237478    -0.03700
N444        N  0.24973524  0.76295303  0.35444438    -0.59300
C445        C  0.23886415  0.79023031  0.37447959     0.97500
C446        C  0.25533848  0.80350707  0.16148658     0.97200
N447        N  0.19377386  0.66138696  0.25491006    -0.04900
N448        N  0.19208821  0.64098717  0.22549565    -0.57400
N449        N  0.22379876  0.68281606  0.34036334    -0.03000
N450        N  0.24751224  0.67399791  0.36478464    -0.58700
N451        N  0.19589674  0.66095503  0.35389803    -0.04900
N452        N  0.20038424  0.63658723  0.38755844    -0.57700
N453        N  0.22136113  0.68369604  0.24095727    -0.02700
N454        N  0.23919090  0.67856666  0.20161107    -0.58800
Mn455      Mn  0.22958255  0.72425682  0.28045808     1.18400
C456        C  0.22037476  0.65184603  0.19238557     0.99500
C457        C  0.23264488  0.64509642  0.39436201     1.00200
N458        N  0.13499640  0.79578516  0.23436690    -0.05000
N459        N  0.13799127  0.81274504  0.19282733    -0.61300
N460        N  0.10200899  0.77793772  0.34581834    -0.03800
N461        N  0.07850376  0.78765469  0.37809886    -0.61900
N462        N  0.12972017  0.80009881  0.33446498    -0.04500
N463        N  0.12551725  0.82542896  0.35839997    -0.61500
N464        N  0.10743962  0.77334646  0.24551752    -0.03400
N465        N  0.09113546  0.77475064  0.21190351    -0.62200
Mn466      Mn  0.17304322  0.79615093  0.27792833     1.10700
C467        C  0.11049707  0.79929593  0.17917489     1.00800
C468        C  0.09351960  0.81737975  0.38564077     1.00800
N469        N  0.11247368  0.66973761  0.37297733    -0.04500
N470        N  0.10345845  0.64911218  0.41258243    -0.59800
N471        N  0.09276876  0.69187487  0.27049807    -0.03800
N472        N  0.07072283  0.68702664  0.24426979    -0.56600
N473        N  0.11322766  0.66557997  0.27372872    -0.05100
N474        N  0.10557461  0.64240450  0.24977723    -0.59400
N475        N  0.09105813  0.69538620  0.37000184    -0.04100
N476        N  0.06695824  0.69260917  0.40739516    -0.56600
Mn477      Mn  0.15372834  0.66333703  0.31483023     1.20200
Mn478      Mn  0.09707057  0.73488864  0.30827636     1.10100
Cl479      Cl  0.16333964  0.72962339  0.29565700    -0.84600
C480        C  0.07521635  0.66381435  0.43376745     0.97800
C481        C  0.07903995  0.65599232  0.23134023     0.97600
C482        C  0.01673083  0.63612170  0.15616777     0.25000
C483        C  0.01901355  0.59974910  0.15845108    -0.23100
C484        C  0.04209111  0.58243417  0.18316292     0.19900
C485        C  0.06211992  0.60082738  0.20564141     0.24900
C486        C  0.05912014  0.63709971  0.20485193    -0.23100
C487        C  0.03641464  0.65460647  0.17933059     0.19800
F488        F  0.03308415  0.68960694  0.17687698    -0.13000
F489        F  0.49434138  0.65350913  0.13309240    -0.15400
F490        F  0.08370760  0.58265979  0.22931475    -0.15400
F491        F  0.04533157  0.54740935  0.18548897    -0.13000
C492        C  0.05010847  0.60944672  0.04982992     0.25000
C493        C  0.01332394  0.60861833  0.05775554    -0.23100
C494        C  0.99696243  0.62932459  0.02686876     0.19900
C495        C  0.01707576  0.64879489  0.48712632     0.24900
C496        C  0.05384066  0.64763674  0.47789238    -0.23100
C497        C  0.07016062  0.62869960  0.51018587     0.19800
F498        F  0.10562629  0.62796272  0.50274108    -0.13000
F499        F  0.06656867  0.58877851  0.07826056    -0.15400
F500        F  0.00049730  0.66697169  0.45665022    -0.15400
F501        F  0.46147963  0.62983371  0.03471773    -0.13000
C502        C  0.22067590  0.58453621  0.11776556     0.25000
C503        C  0.25478883  0.59024014  0.09173126    -0.23100
C504        C  0.27547863  0.61996534  0.09341290     0.19900
C505        C  0.26346409  0.64170584  0.12426066     0.24900
C506        C  0.23068733  0.63375869  0.15386454    -0.23100
C507        C  0.20866235  0.60600702  0.14867041     0.19800
F508        F  0.17627271  0.59803183  0.17538426    -0.13000
F509        F  0.19994903  0.55645563  0.11567746    -0.15400
F510        F  0.28502773  0.66879946  0.12733351    -0.15400
F511        F  0.30873387  0.62588261  0.06885863    -0.13000
C512        C  0.29806145  0.61555499  0.46895795     0.25000
C513        C  0.28243085  0.58287190  0.99237615    -0.23100
C514        C  0.25181525  0.57007953  0.48137498     0.19900
C515        C  0.23626704  0.58990023  0.44915288     0.24900
C516        C  0.25077558  0.62339576  0.42688716    -0.23100
C517        C  0.28240500  0.63571094  0.43652380     0.19800
F518        F  0.29764379  0.66770888  0.41573069    -0.13000
F519        F  0.32787627  0.62836404  0.97833829    -0.15400
F520        F  0.20652562  0.57628484  0.44043806    -0.15400
F521        F  0.23592479  0.53874276  0.50376624    -0.13000
C522        C  0.11025353  0.85752915  0.06862207     0.25000
C523        C  0.07404396  0.85923237  0.07150125    -0.23100
C524        C  0.05076019  0.83546500  0.10424432     0.19900
C525        C  0.06322151  0.81272475  0.13665741     0.24900
C526        C  0.09903204  0.81470711  0.13789698    -0.23100
C527        C  0.12278286  0.83550808  0.10196673     0.19800
F528        F  0.15776373  0.83652898  0.10097397    -0.13000
F529        F  0.13305196  0.88024619  0.03684004    -0.15400
F530        F  0.03957813  0.79219636  0.16996022    -0.15400
F531        F  0.01557572  0.83816675  0.10928133    -0.13000
C532        C  0.07160418  0.89611206  0.44273972     0.25000
C533        C  0.04861904  0.88065755  0.48294380    -0.23100
C534        C  0.03834446  0.84472135  0.48895702     0.19900
C535        C  0.05182370  0.82453084  0.45658507     0.24900
C536        C  0.07642333  0.83956824  0.41766127    -0.23100
C537        C  0.08554104  0.87580793  0.41055326     0.19800
F538        F  0.10863225  0.89151443  0.37288865    -0.13000
F539        F  0.08270778  0.93039746  0.43627649    -0.15400
F540        F  0.04254400  0.78966959  0.46491227    -0.15400
F541        F  0.01654072  0.82844292  0.52720461    -0.13000
C542        C  0.29061989  0.87064878  0.05439558     0.25000
C543        C  0.32090726  0.85526600  0.03544113    -0.23100
C544        C  0.33042599  0.82401045  0.05913232     0.19900
C545        C  0.30951941  0.80757964  0.10013216     0.24900
C546        C  0.27845912  0.82219270  0.11884810    -0.23100
C547        C  0.26965605  0.85444070  0.09586017     0.19800
F548        F  0.24009359  0.86972694  0.11250083    -0.13000
F549        F  0.28047421  0.90046742  0.03183343    -0.15400
F550        F  0.31926728  0.77666721  0.12060348    -0.15400
F551        F  0.35911632  0.80821501  0.04087695    -0.13000
C552        C  0.25286192  0.83648336  0.41699934     0.25000
C553        C  0.25578150  0.80205143  0.40852004    -0.23100
C554        C  0.27880191  0.78024134  0.42863905     0.19900
C555        C  0.30221376  0.79425737  0.45065385     0.24900
C556        C  0.30236827  0.82986239  0.45350735    -0.23100
C557        C  0.27608508  0.85026383  0.43953832     0.19800
F558        F  0.27589189  0.88480837  0.44238125    -0.13000
F559        F  0.23015809  0.85796325  0.39963082    -0.15400
F560        F  0.32691245  0.77399435  0.46535794    -0.15400
F561        F  0.28063353  0.74608350  0.42403712    -0.13000
N562        N  0.33817245  0.86661556  0.48906588    -0.02100
C563        C  0.33486762  0.84789022  0.95686371     0.00500
C564        C  0.36316398  0.85474401  0.92111838    -0.22400
C565        C  0.38513853  0.87861555  0.93151153    -0.22600
C566        C  0.36937290  0.88538554  0.47319315     0.00400
H567        H  0.36629348  0.84514713  0.88972027     0.14200
H568        H  0.40899111  0.89140237  0.90984857     0.14200
N569        N  0.04302786  0.89894474  0.52069405    -0.02100
C570        C  0.02793740  0.92995263  0.52509428     0.00500
C571        C  0.03558448  0.94175765  0.56225030    -0.22400
C572        C  0.05638880  0.91836173  0.58054132    -0.22600
C573        C  0.06048276  0.89257034  0.55472373     0.00400
H574        H  0.52512020  0.96389557  0.57654227     0.14200
H575        H  0.06531722  0.91859035  0.61147790     0.14200
N576        N  0.29362043  0.56477674  0.53166865    -0.02100
C577        C  0.30930445  0.53374342  0.53283204     0.00500
C578        C  0.29531537  0.51080072  0.57237814    -0.22400
C579        C  0.27144991  0.52836108  0.59753876    -0.22600
C580        C  0.27132095  0.56122267  0.57220994     0.00400
H581        H  0.30508034  0.98580073  0.58423180     0.14200
H582        H  0.25808072  0.51933455  0.63208120     0.14200
N583        N  0.44040447  0.93944872  0.99101022    -0.35200
N584        N  0.47084400  0.99956937  0.51328669    -0.55800
N585        N  0.40779461  0.53929798  0.51753916    -0.35200
N586        N  0.37547209  0.97665723  0.99826874    -0.55800
C587        C  0.46888882  0.92636317  0.00515551     0.28400
C588        C  0.41522992  0.91312793  0.00147657     0.28400
C589        C  0.42373214  0.55230427  0.54709785     0.28400
C590        C  0.37310549  0.54425840  0.52914074     0.28400
C591        C  0.49985060  0.98339130  0.49747542     0.37000
C592        C  0.48171577  0.53047064  0.52206383     0.37000
C593        C  0.36603934  0.94756463  0.98372536     0.37000
C594        C  0.35168957  0.00038539  0.48998290     0.37000
C595        C  0.46156227  0.89130342  0.02453110    -0.20500
C596        C  0.42790319  0.88269143  0.02110985    -0.20500
C597        C  0.39926294  0.56756652  0.57594910    -0.20500
C598        C  0.36742965  0.56266722  0.56454266    -0.20500
C599        C  0.02935555  0.00538339  0.49339337    -0.21500
C600        C  0.01789213  0.53460372  0.51035859    -0.21500
C601        C  0.33660758  0.95300347  0.96537251    -0.21500
C602        C  0.32732956  0.98637898  0.96971530    -0.21500
C603        C  0.50016396  0.94636679  0.00294405    -0.16900
C604        C  0.38220378  0.91545735  0.99019866    -0.16900
C605        C  0.34626725  0.52968123  0.51139321    -0.16900
C606        C  0.45960451  0.55005026  0.54931452    -0.16900
H607        H  0.47784484  0.87410748  0.04144645     0.16000
H608        H  0.41386190  0.85733837  0.03310560     0.18100
H609        H  0.40367748  0.58017892  0.60318605     0.16000
H610        H  0.34273042  0.57006144  0.58232005     0.16000
H611        H  0.05645981  0.99899163  0.48467457     0.14300
H612        H  0.03458600  0.55535094  0.51540355     0.14300
H613        H  0.32245321  0.93442742  0.95198599     0.14300
H614        H  0.30409419  0.99830007  0.96153918     0.14300
H615        H  0.43893635  0.96419593  0.97258701     0.27600
H616        H  0.41968850  0.52755206  0.49088513     0.27600
N617        N  0.49287085  0.58392279  0.59441082    -0.02100
C618        C  0.49580193  0.57891308  0.63821679     0.00500
C619        C  0.47488933  0.54983603  0.66225600    -0.22400
C620        C  0.45878411  0.53649296  0.63239458    -0.22600
C621        C  0.47032812  0.55768886  0.59086057     0.00400
H622        H  0.47200498  0.53918935  0.69762860     0.14200
H623        H  0.44104555  0.51335227  0.63992683     0.14200
N624        N  0.21118719  0.79032600  0.82248732    -0.04700
N625        N  0.21481596  0.80780327  0.85464937    -0.56800
N626        N  0.23622878  0.76653954  0.72096704    -0.04400
N627        N  0.26159664  0.77205999  0.68452855    -0.59000
N628        N  0.21584210  0.79296260  0.72066245    -0.04000
N629        N  0.22673133  0.81681919  0.68398494    -0.56800
N630        N  0.23194974  0.76405281  0.82237361    -0.03700
N631        N  0.24973599  0.76295433  0.85444380    -0.59300
C632        C  0.23886437  0.79023141  0.87447915     0.97500
C633        C  0.25533967  0.80350834  0.66148532     0.97200
N634        N  0.19377573  0.66138874  0.75490819    -0.04900
N635        N  0.19208992  0.64098930  0.72549345    -0.57400
N636        N  0.22380060  0.68281769  0.84036158    -0.03000
N637        N  0.24751396  0.67399963  0.86478309    -0.58700
N638        N  0.19589856  0.66095666  0.85389613    -0.04900
N639        N  0.20038592  0.63658898  0.88755665    -0.57700
N640        N  0.22136308  0.68369774  0.74095560    -0.02700
N641        N  0.23919276  0.67856863  0.70160922    -0.58800
Mn642      Mn  0.22958429  0.72425839  0.78045666     1.18400
C643        C  0.22037645  0.65184827  0.69238339     0.99500
C644        C  0.23264643  0.64509821  0.89436045     1.00200
N645        N  0.13499771  0.79578646  0.73436555    -0.05000
N646        N  0.13799217  0.81274662  0.69282616    -0.61300
N647        N  0.10201034  0.77793868  0.84581683    -0.03800
N648        N  0.07850481  0.78765556  0.87809704    -0.61900
N649        N  0.12972136  0.80009997  0.83446363    -0.04500
N650        N  0.12551802  0.82543019  0.85839853    -0.61500
N651        N  0.10744108  0.77334758  0.74551622    -0.03400
N652        N  0.09113666  0.77475184  0.71190253    -0.62200
Mn653      Mn  0.17304454  0.79615227  0.77792696     1.10700
C654        C  0.11049787  0.79929739  0.67917396     1.00800
C655        C  0.09352024  0.81738076  0.88563903     1.00800
N656        N  0.11247550  0.66973868  0.87297575    -0.04500
N657        N  0.10346007  0.64911312  0.91258079    -0.59800
N658        N  0.09277055  0.69187607  0.77049637    -0.03800
N659        N  0.07072436  0.68702766  0.74426847    -0.56600
N660        N  0.11322948  0.66558122  0.77372702    -0.05100
N661        N  0.10557618  0.64240553  0.74977595    -0.59400
N662        N  0.09105990  0.69538722  0.87000019    -0.04100
N663        N  0.06695983  0.69261005  0.90739333    -0.56600
Mn664      Mn  0.15373021  0.66333844  0.81482845     1.20200
Mn665      Mn  0.09707223  0.73488969  0.80827481     1.10100
Cl666      Cl  0.16334127  0.72962474  0.79565548    -0.84600
C667        C  0.07521780  0.66381521  0.93376565     0.97800
C668        C  0.07904134  0.65599324  0.73133921     0.97600
C669        C  0.01673285  0.63612174  0.65616642     0.25000
C670        C  0.01901305  0.59974853  0.65845369    -0.23100
C671        C  0.04208813  0.58243324  0.68316931     0.19900
C672        C  0.06211737  0.60082682  0.70564688     0.24900
C673        C  0.05912065  0.63709998  0.70485254    -0.23100
C674        C  0.03641727  0.65460699  0.67932807     0.19800
F675        F  0.03308963  0.68960817  0.67687012    -0.13000
F676        F  0.49434169  0.65350999  0.63309312    -0.15400
F677        F  0.08370230  0.58265885  0.72932433    -0.15400
F678        F  0.04532569  0.54740767  0.68550014    -0.13000
C679        C  0.05010849  0.60944578  0.54983171     0.25000
C680        C  0.01332395  0.60861710  0.55775780    -0.23100
C681        C  0.99696197  0.62932335  0.52687156     0.19900
C682        C  0.01707673  0.64879594  0.98712367     0.24900
C683        C  0.05384161  0.64763744  0.97789028    -0.23100
C684        C  0.07016106  0.62870020  0.01018422     0.19800
F685        F  0.10562668  0.62796298  0.00274010    -0.13000
F686        F  0.06656905  0.58877778  0.57826211    -0.15400
F687        F  0.00049878  0.66697298  0.95664716    -0.15400
F688        F  0.46147701  0.62983249  0.53472386    -0.13000
C689        C  0.22067596  0.58453933  0.61776269     0.25000
C690        C  0.25478939  0.59024165  0.59172973    -0.23100
C691        C  0.27548028  0.61996596  0.59341200     0.19900
C692        C  0.26346626  0.64170678  0.62425957     0.24900
C693        C  0.23068881  0.63376110  0.65386220    -0.23100
C694        C  0.20866280  0.60601066  0.64866702     0.19800
F695        F  0.17627250  0.59803698  0.67537961    -0.13000
F696        F  0.19994813  0.55645959  0.61567414    -0.15400
F697        F  0.28503101  0.66879911  0.62733363    -0.15400
F698        F  0.30873583  0.62588198  0.56885857    -0.13000
C699        C  0.29806203  0.61555641  0.96895765     0.25000
C700        C  0.28243117  0.58286998  0.49237587    -0.23100
C701        C  0.25181438  0.57008224  0.98137587     0.19900
C702        C  0.23626687  0.58990292  0.94915313     0.24900
C703        C  0.25077656  0.62339776  0.92688633    -0.23100
C704        C  0.28240617  0.63571246  0.93652292     0.19800
F705        F  0.29764579  0.66770992  0.91572917    -0.13000
F706        F  0.32787547  0.62836314  0.47833854    -0.15400
F707        F  0.20652491  0.57628821  0.94043893    -0.15400
F708        F  0.23592271  0.53874625  0.00376819    -0.13000
C709        C  0.11025185  0.85753193  0.56862289     0.25000
C710        C  0.07404211  0.85923409  0.57150293    -0.23100
C711        C  0.05075920  0.83546575  0.60424573     0.19900
C712        C  0.06322152  0.81272531  0.63665764     0.24900
C713        C  0.09903213  0.81470879  0.63789670    -0.23100
C714        C  0.12278215  0.83551083  0.60196661     0.19800
F715        F  0.15776316  0.83653242  0.60097291    -0.13000
F716        F  0.13304944  0.88024972  0.53684077    -0.15400
F717        F  0.03957899  0.79219522  0.66995968    -0.15400
F718        F  0.01557454  0.83816618  0.60928322    -0.13000
C719        C  0.07160374  0.89611229  0.94273910     0.25000
C720        C  0.04861897  0.88065718  0.98294323    -0.23100
C721        C  0.03834455  0.84472103  0.98895577     0.19900
C722        C  0.05182398  0.82453099  0.95658332     0.24900
C723        C  0.07642361  0.83956888  0.91765975    -0.23100
C724        C  0.08554081  0.87580861  0.91055216     0.19800
F725        F  0.10863173  0.89151560  0.87288751    -0.13000
F726        F  0.08270684  0.93039778  0.93627627    -0.15400
F727        F  0.04254456  0.78966970  0.96490988    -0.15400
F728        F  0.01654102  0.82844213  0.02720322    -0.13000
C729        C  0.29062093  0.87065093  0.55439547     0.25000
C730        C  0.32090768  0.85526781  0.53543996    -0.23100
C731        C  0.33042652  0.82401200  0.55913047     0.19900
C732        C  0.30952003  0.80758078  0.60013017     0.24900
C733        C  0.27846013  0.82219405  0.61884688    -0.23100
C734        C  0.26965731  0.85444254  0.59586002     0.19800
F735        F  0.24009526  0.86972898  0.61250161    -0.13000
F736        F  0.28047560  0.90047027  0.53183446    -0.15400
F737        F  0.31926758  0.77666782  0.62060050    -0.15400
F738        F  0.35911691  0.80821686  0.54087467    -0.13000
C739        C  0.25286336  0.83648524  0.91699678     0.25000
C740        C  0.25578120  0.80205255  0.90851991    -0.23100
C741        C  0.27879987  0.78024168  0.92864119     0.19900
C742        C  0.30221205  0.79425739  0.95065586     0.24900
C743        C  0.30236837  0.82986285  0.95350702    -0.23100
C744        C  0.27608678  0.85026538  0.93953560     0.19800
F745        F  0.27589550  0.88481042  0.94237609    -0.13000
F746        F  0.23016127  0.85796601  0.89962589    -0.15400
F747        F  0.32690925  0.77399341  0.96536216    -0.15400
F748        F  0.28062947  0.74608322  0.92404169    -0.13000
N749        N  0.83817235  0.36661623  0.98906502    -0.02100
C750        C  0.83486749  0.34788993  0.45686420     0.00500
C751        C  0.86316430  0.35474309  0.42111942    -0.22400
C752        C  0.88513934  0.37861376  0.43151328    -0.22600
C753        C  0.86937223  0.38538712  0.97319180     0.00400
H754        H  0.86629382  0.34514644  0.38972135     0.14200
H755        H  0.90899224  0.39140004  0.40985082     0.14200
N756        N  0.54302790  0.39894530  0.02069252    -0.02100
C757        C  0.52793772  0.42995332  0.02509252     0.00500
C758        C  0.53558504  0.44175851  0.06224830    -0.22400
C759        C  0.55638935  0.41836258  0.08053931    -0.22600
C760        C  0.56048301  0.39257101  0.05472198     0.00400
H761        H  0.02511748  0.46389426  0.07654368     0.14200
H762        H  0.56531786  0.41859125  0.11147583     0.14200
N763        N  0.79361937  0.06477558  0.03167075    -0.02100
C764        C  0.80930422  0.03374276  0.03283432     0.00500
C765        C  0.79531610  0.01080025  0.07238097    -0.22400
C766        C  0.77145016  0.02836025  0.09754150    -0.22600
C767        C  0.77132005  0.06122142  0.07221213     0.00400
H768        H  0.80508195  0.48580130  0.08423278     0.14200
H769        H  0.75808151  0.01933393  0.13208419     0.14200
N770        N  0.94040510  0.43944725  0.49101214    -0.35200
N771        N  0.97084387  0.49956985  0.01328522    -0.55800
N772        N  0.90779467  0.03929821  0.01753857    -0.35200
N773        N  0.87547209  0.47665572  0.49827072    -0.55800
C774        C  0.96888993  0.42636275  0.50515573     0.28400
C775        C  0.91523102  0.41312679  0.50147714     0.28400
C776        C  0.92373240  0.05230447  0.04709736     0.28400
C777        C  0.87310537  0.04425845  0.02914134     0.28400
C778        C  0.99985038  0.48339129  0.99747474     0.37000
C779        C  0.98171601  0.03047124  0.02206193     0.37000
C780        C  0.86603963  0.44756305  0.48372731     0.37000
C781        C  0.85168935  0.50038685  0.98998207     0.37000
C782        C  0.96156429  0.39130269  0.52452964    -0.20500
C783        C  0.92790522  0.38269030  0.52110865    -0.20500
C784        C  0.89926341  0.06756632  0.07594939    -0.20500
C785        C  0.86742987  0.06266690  0.06454365    -0.20500
C786        C  0.52935570  0.50538394  0.99339131    -0.21500
C787        C  0.51789251  0.03460309  0.01035917    -0.21500
C788        C  0.83660797  0.45300170  0.46537416    -0.21500
C789        C  0.82732979  0.48637721  0.46971665    -0.21500
C790        C  0.00016476  0.44636687  0.50294451    -0.16900
C791        C  0.88220454  0.41545594  0.49020001    -0.16900
C792        C  0.84626687  0.02968124  0.01139430    -0.16900
C793        C  0.95960495  0.05005058  0.04931331    -0.16900
H794        H  0.97784726  0.37410674  0.54144352     0.16000
H795        H  0.91386475  0.35733698  0.53310327     0.18100
H796        H  0.90367827  0.08017853  0.10318659     0.16000
H797        H  0.84273066  0.07006071  0.08232174     0.16000
H798        H  0.55646003  0.49899219  0.98467225     0.14300
H799        H  0.53458654  0.05534968  0.01540557     0.14300
H800        H  0.82245383  0.43442549  0.45198712     0.14300
H801        H  0.80409457  0.49829826  0.46153995     0.14300
H802        H  0.93893603  0.46419919  0.47258668     0.27600
H803        H  0.91968749  0.02755332  0.99088588     0.27600
N804        N  0.99287145  0.08392307  0.09440948    -0.02100
C805        C  0.99580322  0.07891295  0.13821521     0.00500
C806        C  0.97489146  0.04983530  0.16225424    -0.22400
C807        C  0.95878598  0.03649233  0.13239297    -0.22600
C808        C  0.97032906  0.05768885  0.09085920     0.00400
H809        H  0.97200787  0.03918820  0.19762646     0.14200
H810        H  0.94104793  0.01335130  0.13992510     0.14200
N811        N  0.71118700  0.29032715  0.32248612    -0.04700
N812        N  0.71481610  0.30780458  0.35464791    -0.56800
N813        N  0.73622829  0.26654070  0.22096596    -0.04400
N814        N  0.76159652  0.27206149  0.18452786    -0.59000
N815        N  0.71584168  0.29296382  0.22066149    -0.04000
N816        N  0.72673132  0.31682078  0.18398446    -0.56800
N817        N  0.73194957  0.26405397  0.32237227    -0.03700
N818        N  0.74973615  0.26295564  0.35444210    -0.59300
C819        C  0.73886471  0.29023282  0.37447736     0.97500
C820        C  0.75533985  0.30351010  0.16148498     0.97200
N821        N  0.69377490  0.16138962  0.25490779    -0.04900
N822        N  0.69208893  0.14098991  0.22549340    -0.57400
N823        N  0.72380030  0.18281878  0.34036041    -0.03000
N824        N  0.74751398  0.17400062  0.36478139    -0.58700
N825        N  0.69589826  0.16095780  0.35389533    -0.04900
N826        N  0.70038590  0.13659005  0.38755561    -0.57700
N827        N  0.72136216  0.18369869  0.24095474    -0.02700
N828        N  0.73919164  0.17856935  0.20160839    -0.58800
Mn829      Mn  0.72958377  0.22425945  0.28045551     1.18400
C830        C  0.72037526  0.15184878  0.19238309     0.99500
C831        C  0.73264661  0.14509920  0.39435885     1.00200
N832        N  0.63499713  0.29578731  0.23436499    -0.05000
N833        N  0.63799142  0.31274760  0.19282572    -0.61300
N834        N  0.60201011  0.27793966  0.34581622    -0.03800
N835        N  0.57850468  0.28765653  0.37809650    -0.61900
N836        N  0.62972107  0.30010103  0.33446280    -0.04500
N837        N  0.62551778  0.32543132  0.35839758    -0.61500
N838        N  0.60744048  0.27334843  0.24551579    -0.03400
N839        N  0.59113583  0.27475290  0.21190226    -0.62200
Mn840      Mn  0.67304411  0.29615330  0.27792608     1.10700
C841        C  0.61049702  0.29929851  0.17917369     1.00800
C842        C  0.59352011  0.31738182  0.38563826     1.00800
N843        N  0.61247514  0.16973959  0.37297558    -0.04500
N844        N  0.60345981  0.14911391  0.41258054    -0.59800
N845        N  0.59276983  0.19187668  0.27049624    -0.03800
N846        N  0.57072373  0.18702808  0.24426827    -0.56600
N847        N  0.61322882  0.16558187  0.27372705    -0.05100
N848        N  0.60557565  0.14240607  0.24977606    -0.59400
N849        N  0.59105944  0.19538805  0.37000016    -0.04100
N850        N  0.56695938  0.19261068  0.40739338    -0.56600
Mn851      Mn  0.65372969  0.16333940  0.31482814     1.20200
Mn852      Mn  0.59707170  0.23489051  0.30827451     1.10100
Cl853      Cl  0.66334077  0.22962571  0.29565480    -0.84600
C854        C  0.57521750  0.16381580  0.43376559     0.97800
C855        C  0.57904086  0.15599360  0.23133917     0.97600
C856        C  0.51673179  0.13612128  0.15616741     0.25000
C857        C  0.51901335  0.09974833  0.15845325    -0.23100
C858        C  0.54208986  0.08243360  0.18316700     0.19900
C859        C  0.56211900  0.10082744  0.20564446     0.24900
C860        C  0.55912059  0.13710024  0.20485205    -0.23100
C861        C  0.53641601  0.15460673  0.17932907     0.19800
F862        F  0.53308694  0.18960760  0.17687262    -0.13000
F863        F  0.99434115  0.15350959  0.13309372    -0.15400
F864        F  0.58370558  0.08266005  0.22931977    -0.15400
F865        F  0.54532899  0.04740838  0.18549596    -0.13000
C866        C  0.55010870  0.10944611  0.04983201     0.25000
C867        C  0.51332416  0.10861703  0.05775766    -0.23100
C868        C  0.49696224  0.12932312  0.02687120     0.19900
C869        C  0.51707656  0.14879640  0.48712404     0.24900
C870        C  0.55384144  0.14763775  0.47789028    -0.23100
C871        C  0.57016095  0.12870001  0.51018388     0.19800
F872        F  0.60562655  0.12796228  0.50273930    -0.13000
F873        F  0.56656931  0.08877842  0.07826266    -0.15400
F874        F  0.50049848  0.16697374  0.45664789    -0.15400
F875        F  0.96147726  0.12983290  0.03472279    -0.13000
C876        C  0.72067499  0.08453848  0.11776425     0.25000
C877        C  0.75478858  0.09024040  0.09173173    -0.23100
C878        C  0.77547968  0.11996456  0.09341399     0.19900
C879        C  0.76346546  0.14170604  0.12426050     0.24900
C880        C  0.73068773  0.13376097  0.15386259    -0.23100
C881        C  0.70866167  0.10601040  0.14866776     0.19800
F882        F  0.67627110  0.09803733  0.17537985    -0.13000
F883        F  0.69994716  0.05645864  0.11567598    -0.15400
F884        F  0.78503029  0.16879842  0.12733424    -0.15400
F885        F  0.80873569  0.12587967  0.06886180    -0.13000
C886        C  0.79806302  0.11555714  0.46895470     0.25000
C887        C  0.78243024  0.08286888  0.99237789    -0.23100
C888        C  0.75181479  0.07008339  0.48137412     0.19900
C889        C  0.73626718  0.08990405  0.44915152     0.24900
C890        C  0.75077702  0.12339869  0.42688428    -0.23100
C891        C  0.78240710  0.13571314  0.43651999     0.19800
F892        F  0.79764705  0.16771029  0.41572540    -0.13000
F893        F  0.82787388  0.12836252  0.97834192    -0.15400
F894        F  0.70652496  0.07628945  0.44043782    -0.15400
F895        F  0.73592315  0.03874746  0.50376663    -0.13000
C896        C  0.61025167  0.35753229  0.06862192     0.25000
C897        C  0.57404200  0.35923467  0.07150155    -0.23100
C898        C  0.55075879  0.33546675  0.10424458     0.19900
C899        C  0.56322079  0.31272673  0.13665724     0.24900
C900        C  0.59903137  0.31470981  0.13789634    -0.23100
C901        C  0.62278166  0.33551136  0.10196606     0.19800
F902        F  0.65776261  0.33653277  0.10097268    -0.13000
F903        F  0.63304957  0.38024988  0.03683990    -0.15400
F904        F  0.53957796  0.29219758  0.16995994    -0.15400
F905        F  0.51557420  0.33816749  0.10928168    -0.13000
C906        C  0.57160288  0.39611262  0.44273954     0.25000
C907        C  0.54861916  0.38065680  0.48294424    -0.23100
C908        C  0.53834575  0.34472040  0.48895674     0.19900
C909        C  0.55182520  0.32453085  0.45658384     0.24900
C910        C  0.57642371  0.33956948  0.41765961    -0.23100
C911        C  0.58553996  0.37580942  0.41055205     0.19800
F912        F  0.60863008  0.39151699  0.37288698    -0.13000
F913        F  0.58270508  0.43039838  0.43627672    -0.15400
F914        F  0.54254702  0.28966928  0.46491050    -0.15400
F915        F  0.51654307  0.32844083  0.52720454    -0.13000
C916        C  0.79062133  0.37065241  0.05439491     0.25000
C917        C  0.82090767  0.35526877  0.03543915    -0.23100
C918        C  0.83042640  0.32401299  0.05912985     0.19900
C919        C  0.80952017  0.30758228  0.10012993     0.24900
C920        C  0.77846048  0.32219585  0.11884672    -0.23100
C921        C  0.76965790  0.35444445  0.09585979     0.19800
F922        F  0.74009630  0.36973143  0.11250172    -0.13000
F923        F  0.78047623  0.40047184  0.03183383    -0.15400
F924        F  0.81926767  0.27666939  0.12060047    -0.15400
F925        F  0.85911638  0.30821737  0.04087386    -0.13000
C926        C  0.75286402  0.33648654  0.41699494     0.25000
C927        C  0.75578146  0.30205375  0.40851831    -0.23100
C928        C  0.77879947  0.28024247  0.42864030     0.19900
C929        C  0.80221127  0.29425772  0.45065587     0.24900
C930        C  0.80236808  0.32986322  0.45350690    -0.23100
C931        C  0.77608719  0.35026627  0.43953442     0.19800
F932        F  0.77589642  0.38481137  0.44237459    -0.13000
F933        F  0.73016267  0.35796774  0.39962312    -0.15400
F934        F  0.82690774  0.27399327  0.46536324    -0.15400
F935        F  0.78062883  0.24608403  0.42404064    -0.13000
N936        N  0.83817305  0.36661312  0.48906826    -0.02100
C937        C  0.83486743  0.34789141  0.95686232     0.00500
C938        C  0.86316364  0.35474504  0.92111677    -0.22400
C939        C  0.88513760  0.37861782  0.93150860    -0.22600
C940        C  0.86937403  0.38538240  0.47319687     0.00400
H941        H  0.86629348  0.34514702  0.88971962     0.14200
H942        H  0.90899006  0.39140451  0.90984536     0.14200
N943        N  0.54302893  0.39894290  0.52069550    -0.02100
C944        C  0.52793869  0.42995066  0.52509732     0.00500
C945        C  0.53558832  0.44175567  0.56225205    -0.22400
C946        C  0.55639397  0.41835988  0.58054053    -0.22600
C947        C  0.56048612  0.39256846  0.55472293     0.00400
H948        H  0.02512720  0.46389626  0.57653964     0.14200
H949        H  0.56532412  0.41858834  0.61147603     0.14200
N950        N  0.79362120  0.06477914  0.53166603    -0.02100
C951        C  0.80930575  0.03374617  0.53282764     0.00500
C952        C  0.79531707  0.01080223  0.57237277    -0.22400
C953        C  0.77145134  0.02836144  0.59753470    -0.22600
C954        C  0.77132181  0.06122362  0.57220758     0.00400
H955        H  0.80508160  0.48579975  0.58423711     0.14200
H956        H  0.75808223  0.01933363  0.63207680     0.14200
N957        N  0.94040344  0.43945018  0.99100746    -0.35200
N958        N  0.97084463  0.49956704  0.51329040    -0.55800
N959        N  0.90779589  0.03930087  0.51753393    -0.35200
N960        N  0.87547147  0.47666036  0.99826469    -0.55800
C961        C  0.96888712  0.42636542  0.00515336     0.28400
C962        C  0.91522835  0.41313089  0.00147360     0.28400
C963        C  0.92373354  0.05230573  0.54709349     0.28400
C964        C  0.87310673  0.04426105  0.52913626     0.28400
C965        C  0.99985131  0.48338959  0.49747782     0.37000
C966        C  0.98171717  0.03047283  0.52205718     0.37000
C967        C  0.86603865  0.44756801  0.98372097     0.37000
C968        C  0.85168986  0.50038200  0.48998734     0.37000
C969        C  0.96155955  0.39130617  0.02453046    -0.20500
C970        C  0.92790057  0.38269459  0.02110867    -0.20500
C971        C  0.89926439  0.06756670  0.57594635    -0.20500
C972        C  0.86743098  0.06266825  0.56453973    -0.20500
C973        C  0.52935434  0.50538180  0.49339958    -0.21500
C974        C  0.51789177  0.03460471  0.51035767    -0.21500
C975        C  0.83660700  0.45300706  0.96536796    -0.21500
C976        C  0.82732910  0.48638258  0.96971113    -0.21500
C977        C  0.00016241  0.44636845  0.00294214    -0.16900
C978        C  0.88220263  0.41546059  0.99019483    -0.16900
C979        C  0.84626851  0.02968486  0.51138784    -0.16900
C980        C  0.95960615  0.05005173  0.54930917    -0.16900
H981        H  0.97784108  0.37411061  0.04144731     0.16000
H982        H  0.91385878  0.35734219  0.03310535     0.18100
H983        H  0.90367905  0.08017786  0.60318428     0.16000
H984        H  0.84273184  0.07006219  0.58231760     0.16000
H985        H  0.55645882  0.49899061  0.48467981     0.14300
H986        H  0.53458578  0.05535120  0.51540407     0.14300
H987        H  0.82245238  0.43443095  0.95198145     0.14300
H988        H  0.80409366  0.49830376  0.96153531     0.14300
H989        H  0.93893571  0.46420283  0.97257916     0.27600
H990        H  0.91968970  0.02755612  0.49087871     0.27600
N991        N  0.99287256  0.08392363  0.59440598    -0.02100
C992        C  0.99580436  0.07891298  0.63821177     0.00500
C993        C  0.97489291  0.04983493  0.66225022    -0.22400
C994        C  0.95878759  0.03649225  0.63238862    -0.22600
C995        C  0.97033037  0.05768938  0.59085525     0.00400
H996        H  0.97200938  0.03918735  0.69762239     0.14200
H997        H  0.94104981  0.01335105  0.63992029     0.14200
N998        N  0.71118621  0.29032343  0.82248979    -0.04700
N999        N  0.71481535  0.30780076  0.85465172    -0.56800
N1000       N  0.73622771  0.26653701  0.72096921    -0.04400
N1001       N  0.76159536  0.27205722  0.68453044    -0.59000
N1002       N  0.71584119  0.29296018  0.72066458    -0.04000
N1003       N  0.72673026  0.31681658  0.68398685    -0.56800
N1004       N  0.73194856  0.26405008  0.82237610    -0.03700
N1005       N  0.74973497  0.26295154  0.85444610    -0.59300
C1006       C  0.73886378  0.29022877  0.87448138     0.97500
C1007       C  0.75533840  0.30350553  0.66148700     0.97200
N1008       N  0.69377440  0.16138614  0.75491018    -0.04900
N1009       N  0.69208877  0.14098673  0.72549529    -0.57400
N1010       N  0.72379891  0.18281481  0.84036415    -0.03000
N1011       N  0.74751218  0.17399663  0.86478578    -0.58700
N1012       N  0.69589688  0.16095377  0.85389852    -0.04900
N1013       N  0.70038416  0.13658595  0.88755901    -0.57700
N1014       N  0.72136172  0.18369519  0.74095772    -0.02700
N1015       N  0.73919149  0.17856621  0.70161132    -0.58800
Mn1016     Mn  0.72958291  0.22425572  0.78045902     1.18400
C1017       C  0.72037535  0.15184581  0.69238532     0.99500
C1018       C  0.73264466  0.14509513  0.89436302     1.00200
N1019       N  0.63499698  0.29578434  0.73436727    -0.05000
N1020       N  0.63799213  0.31274394  0.69282747    -0.61300
N1021       N  0.60200924  0.27793684  0.84581873    -0.03800
N1022       N  0.57850388  0.28765386  0.87809907    -0.61900
N1023       N  0.62972051  0.30009779  0.83446568    -0.04500
N1024       N  0.62551757  0.32542786  0.85840077    -0.61500
N1025       N  0.60744018  0.27334568  0.74551777    -0.03400
N1026       N  0.59113631  0.27474960  0.71190358    -0.62200
Mn1027     Mn  0.67304364  0.29614995  0.77792911     1.10700
C1028       C  0.61049808  0.29929466  0.67917483     1.00800
C1029       C  0.59351976  0.31737880  0.88564124     1.00800
N1030       N  0.61247399  0.16973686  0.87297745    -0.04500
N1031       N  0.60345882  0.14911169  0.91258275    -0.59800
N1032       N  0.59276920  0.19187432  0.77049822    -0.03800
N1033       N  0.57072311  0.18702622  0.74427013    -0.56600
N1034       N  0.61322800  0.16557932  0.77372881    -0.05100
N1035       N  0.60557466  0.14240386  0.74977746    -0.59400
N1036       N  0.59105853  0.19538553  0.87000185    -0.04100
N1037       N  0.56695877  0.19260881  0.90739521    -0.56600
Mn1038     Mn  0.65372867  0.16333610  0.81483040     1.20200
Mn1039     Mn  0.59707100  0.23488791  0.80827656     1.10100
Cl1040     Cl  0.66334003  0.22962245  0.79565751    -0.84600
C1041       C  0.57521687  0.16381414  0.93376768     0.97800
C1042       C  0.57903997  0.15599184  0.73134066     0.97600
C1043       C  0.51673180  0.13612210  0.65616671     0.25000
C1044       C  0.51901318  0.09974923  0.65845146    -0.23100
C1045       C  0.54208919  0.08243374  0.68316539     0.19900
C1046       C  0.56211795  0.10082668  0.70564413     0.24900
C1047       C  0.55911984  0.13709938  0.70485266    -0.23100
C1048       C  0.53641565  0.15460667  0.67932968     0.19800
F1049       F  0.53308646  0.18960741  0.67687474    -0.13000
F1050       F  0.99434169  0.15350954  0.63309159    -0.15400
F1051       F  0.58370377  0.08265848  0.72931991    -0.15400
F1052       F  0.54532805  0.04740856  0.68549343    -0.13000
C1053       C  0.55010842  0.10944648  0.54982967     0.25000
C1054       C  0.51332391  0.10861843  0.55775560    -0.23100
C1055       C  0.49696236  0.12932495  0.52686913     0.19900
C1056       C  0.51707616  0.14879465  0.98712605     0.24900
C1057       C  0.55384106  0.14763673  0.97789253    -0.23100
C1058       C  0.57016094  0.12870003  0.01018639     0.19800
F1059       F  0.60562663  0.12796369  0.00274216    -0.13000
F1060       F  0.56656852  0.08877783  0.57826001    -0.15400
F1061       F  0.50049786  0.16697128  0.95664962    -0.15400
F1062       F  0.96147939  0.12983354  0.53471807    -0.13000
C1063       C  0.72067637  0.08453706  0.61776382     0.25000
C1064       C  0.75478908  0.09024149  0.59172894    -0.23100
C1065       C  0.77547855  0.11996703  0.59341032     0.19900
C1066       C  0.76346413  0.14170696  0.62425893     0.24900
C1067       C  0.73068776  0.13375910  0.65386359    -0.23100
C1068       C  0.70866292  0.10600736  0.64866934     0.19800
F1069       F  0.67627359  0.09803152  0.67538376    -0.13000
F1070       F  0.69994967  0.05645631  0.61567584    -0.15400
F1071       F  0.78502753  0.16880083  0.62733167    -0.15400
F1072       F  0.80873335  0.12588520  0.56885486    -0.13000
C1073       C  0.79806028  0.11555410  0.96896052     0.25000
C1074       C  0.78243152  0.08287297  0.49237392    -0.23100
C1075       C  0.75181451  0.07007835  0.98137659     0.19900
C1076       C  0.73626655  0.08989901  0.94915416     0.24900
C1077       C  0.75077504  0.12339459  0.92688867    -0.23100
C1078       C  0.78240405  0.13571003  0.93652612     0.19800
F1079       F  0.79764257  0.16770821  0.91573364    -0.13000
F1080       F  0.82787776  0.12836446  0.47833446    -0.15400
F1081       F  0.70652533  0.07628355  0.94043889    -0.15400
F1082       F  0.73592396  0.03874160  0.00376777    -0.13000
C1083       C  0.61025416  0.35752848  0.56862252     0.25000
C1084       C  0.57404454  0.35923157  0.57150201    -0.23100
C1085       C  0.55076099  0.33546375  0.60424477     0.19900
C1086       C  0.56322260  0.31272297  0.63665709     0.24900
C1087       C  0.59903310  0.31470576  0.63789682    -0.23100
C1088       C  0.62278372  0.33550719  0.60196681     0.19800
F1089       F  0.65776461  0.33652832  0.60097391    -0.13000
F1090       F  0.63305242  0.38024585  0.53684070    -0.15400
F1091       F  0.53957950  0.29219348  0.66995905    -0.15400
F1092       F  0.51557647  0.33816528  0.60928218    -0.13000
C1093       C  0.57160476  0.39611183  0.94273871     0.25000
C1094       C  0.54861886  0.38065794  0.98294242    -0.23100
C1095       C  0.53834339  0.34472195  0.98895571     0.19900
C1096       C  0.55182261  0.32453100  0.95658422     0.24900
C1097       C  0.57642317  0.33956773  0.91766098    -0.23100
C1098       C  0.58554156  0.37580728  0.91055276     0.19800
F1099       F  0.60863344  0.39151321  0.87288844    -0.13000
F1100       F  0.58270924  0.43039697  0.93627549    -0.15400
F1101       F  0.54254188  0.28966995  0.96491130    -0.15400
F1102       F  0.51653888  0.32844413  0.02720299    -0.13000
C1103       C  0.79061955  0.37064736  0.55439617     0.25000
C1104       C  0.82090716  0.35526492  0.53544182    -0.23100
C1105       C  0.83042595  0.32400928  0.55913283     0.19900
C1106       C  0.80951922  0.30757818  0.60013242     0.24900
C1107       C  0.77845884  0.32219107  0.61884839    -0.23100
C1108       C  0.76965560  0.35443901  0.59586050     0.19800
F1109       F  0.74009291  0.36972496  0.61250102    -0.13000
F1110       F  0.78047379  0.40046601  0.53183412    -0.15400
F1111       F  0.81926711  0.27666569  0.62060359    -0.15400
F1112       F  0.85911655  0.30821420  0.54087753    -0.13000
C1113       C  0.75286119  0.33648190  0.91700127     0.25000
C1114       C  0.75578135  0.30205011  0.90852152    -0.23100
C1115       C  0.77880263  0.28024055  0.92863956     0.19900
C1116       C  0.80221493  0.29425713  0.95065329     0.24900
C1117       C  0.80236878  0.32986210  0.95350706    -0.23100
C1118       C  0.77608471  0.35026287  0.93953934     0.19800
F1119       F  0.77589085  0.38480734  0.94238269    -0.13000
F1120       F  0.73015623  0.35796113  0.89963423    -0.15400
F1121       F  0.82691453  0.27399475  0.96535611    -0.15400
F1122       F  0.78063461  0.24608272  0.92403763    -0.13000
N1123       N  0.83817252  0.86661256  0.98906907    -0.02100
C1124       C  0.83486733  0.84789168  0.45686195     0.00500
C1125       C  0.86316369  0.85474465  0.42111657    -0.22400
C1126       C  0.88513824  0.87861678  0.43150855    -0.22600
C1127       C  0.86937304  0.88538268  0.97319757     0.00400
H1128       H  0.86629325  0.84514671  0.38971941     0.14200
H1129       H  0.90899085  0.89140301  0.40984538     0.14200
N1130       N  0.54302869  0.89894301  0.02069477    -0.02100
C1131       C  0.52793861  0.92995092  0.02509565     0.00500
C1132       C  0.53558742  0.94175622  0.06225060    -0.22400
C1133       C  0.55639259  0.91836047  0.08054011    -0.22600
C1134       C  0.56048515  0.89256879  0.05472292     0.00400
H1135       H  0.02512483  0.96389514  0.07654155     0.14200
H1136       H  0.56532220  0.91858918  0.11147591     0.14200
N1137       N  0.79361986  0.56477836  0.03166844    -0.02100
C1138       C  0.80930507  0.53374578  0.03283001     0.00500
C1139       C  0.79531703  0.51080179  0.07237535    -0.22400
C1140       C  0.77145081  0.52836056  0.09753728    -0.22600
C1141       C  0.77132042  0.56122252  0.07220995     0.00400
H1142       H  0.80508089  0.98580000  0.08424013     0.14200
H1143       H  0.75808209  0.51933279  0.13207957     0.14200
N1144       N  0.94040468  0.93944938  0.49100704    -0.35200
N1145       N  0.97084345  0.99956757  0.01329066    -0.55800
N1146       N  0.90779525  0.53930119  0.01753482    -0.35200
N1147       N  0.87547230  0.97665974  0.49826436    -0.55800
C1148       C  0.96888877  0.92636522  0.50515149     0.28400
C1149       C  0.91522996  0.91313032  0.50147200     0.28400
C1150       C  0.92373307  0.55230588  0.04709438     0.28400
C1151       C  0.87310610  0.54426121  0.02913752     0.28400
C1152       C  0.99985012  0.98338986  0.99747859     0.37000
C1153       C  0.98171676  0.53047283  0.02205808     0.37000
C1154       C  0.86603961  0.94756729  0.48372075     0.37000
C1155       C  0.85168833  0.00038210  0.98998873     0.37000
C1156       C  0.96156196  0.89130563  0.52452678    -0.20500
C1157       C  0.92790298  0.88269386  0.52110519    -0.20500
C1158       C  0.89926397  0.56756664  0.07594756    -0.20500
C1159       C  0.86743048  0.56266815  0.06454124    -0.20500
C1160       C  0.52935572  0.00538175  0.99339622    -0.21500
C1161       C  0.51789255  0.53460517  0.01035456    -0.21500
C1162       C  0.83660802  0.95300620  0.46536757    -0.21500
C1163       C  0.82733009  0.98638175  0.46971035    -0.21500
C1164       C  0.00016371  0.94636866  0.50294092    -0.16900
C1165       C  0.88220386  0.91545996  0.49019420    -0.16900
C1166       C  0.84626770  0.52968510  0.01138928    -0.16900
C1167       C  0.95960566  0.55005178  0.04931001    -0.16900
H1168       H  0.97784394  0.87410977  0.54144224     0.16000
H1169       H  0.91386177  0.85734107  0.53310077     0.18100
H1170       H  0.90367870  0.58017755  0.10318561     0.16000
H1171       H  0.84273137  0.57006174  0.08231955     0.16000
H1172       H  0.55646018  0.99899006  0.98467709     0.14300
H1173       H  0.53458666  0.55535150  0.01540117     0.14300
H1174       H  0.82245367  0.93443015  0.45198093     0.14300
H1175       H  0.80409477  0.99830292  0.46153408     0.14300
H1176       H  0.93893620  0.96420552  0.47257755     0.27600
H1177       H  0.91968903  0.52755656  0.99087934     0.27600
N1178       N  0.99287211  0.58392408  0.09440642    -0.02100
C1179       C  0.99580433  0.57891338  0.13821202     0.00500
C1180       C  0.97489329  0.54983514  0.16225066    -0.22400
C1181       C  0.95878771  0.53649239  0.13238932    -0.22600
C1182       C  0.97033001  0.55768967  0.09085593     0.00400
H1183       H  0.97201030  0.53918739  0.19762285     0.14200
H1184       H  0.94105006  0.51335085  0.13992116     0.14200
N1185       N  0.71118503  0.79032407  0.32248977    -0.04700
N1186       N  0.71481465  0.80780199  0.35465094    -0.56800
N1187       N  0.73622636  0.76653706  0.22096980    -0.04400
N1188       N  0.76159439  0.77205746  0.18453147    -0.59000
N1189       N  0.71583980  0.79296024  0.22066500    -0.04000
N1190       N  0.72672928  0.81681681  0.18398747    -0.56800
N1191       N  0.73194735  0.76405071  0.32237627    -0.03700
N1192       N  0.74973426  0.76295272  0.35444570    -0.59300
C1193       C  0.73886335  0.79023031  0.37448039     0.97500
C1194       C  0.75533768  0.80350583  0.16148806     0.97200
N1195       N  0.69377302  0.66138594  0.25491192    -0.04900
N1196       N  0.69208756  0.64098606  0.22549753    -0.57400
N1197       N  0.72379768  0.68281539  0.34036518    -0.03000
N1198       N  0.74751124  0.67399732  0.36478636    -0.58700
N1199       N  0.69589571  0.66095424  0.35389993    -0.04900
N1200       N  0.70038341  0.63658644  0.38756023    -0.57700
N1201       N  0.72136028  0.68369505  0.24095919    -0.02700
N1202       N  0.73919021  0.67856564  0.20161309    -0.58800
Mn1203     Mn  0.72958154  0.72425597  0.28045984     1.18400
C1204       C  0.72037418  0.65184491  0.19238758     0.99500
C1205       C  0.73264405  0.64509579  0.39436371     1.00200
N1206       N  0.63499545  0.79578426  0.23436827    -0.05000
N1207       N  0.63799027  0.81274426  0.19282881    -0.61300
N1208       N  0.60200802  0.77793706  0.34581953    -0.03800
N1209       N  0.57850262  0.78765439  0.37809958    -0.61900
N1210       N  0.62971922  0.80009813  0.33446611    -0.04500
N1211       N  0.62551618  0.82542856  0.35840064    -0.61500
N1212       N  0.60743864  0.77334560  0.24551889    -0.03400
N1213       N  0.59113438  0.77474996  0.21190497    -0.62200
Mn1214     Mn  0.67304226  0.79615012  0.27792955     1.10700
C1215       C  0.61049600  0.79929529  0.17917641     1.00800
C1216       C  0.59351841  0.81737960  0.38564116     1.00800
N1217       N  0.61247261  0.66973686  0.37297907    -0.04500
N1218       N  0.60345741  0.64911160  0.41258436    -0.59800
N1219       N  0.59276788  0.69187399  0.27049945    -0.03800
N1220       N  0.57072230  0.68702592  0.24427065    -0.56600
N1221       N  0.61322677  0.66557909  0.27373027    -0.05100
N1222       N  0.60557405  0.64240377  0.24977837    -0.59400
N1223       N  0.59105710  0.69538547  0.37000344    -0.04100
N1224       N  0.56695726  0.69260862  0.40739679    -0.56600
Mn1225     Mn  0.65372735  0.66333615  0.31483201     1.20200
Mn1226     Mn  0.59706959  0.73488781  0.30827777     1.10100
Cl1227     Cl  0.66333864  0.72962253  0.29565852    -0.84600
C1228       C  0.57521535  0.66381390  0.43376931     0.97800
C1229       C  0.57903960  0.65599168  0.23134097     0.97600
C1230       C  0.51673188  0.63612128  0.15616653     0.25000
C1231       C  0.51901451  0.59974865  0.15845006    -0.23100
C1232       C  0.54209168  0.58243370  0.18316255     0.19900
C1233       C  0.56212008  0.60082690  0.20564150     0.24900
C1234       C  0.55912029  0.63709922  0.20485195    -0.23100
C1235       C  0.53641528  0.65460606  0.17932985     0.19800
F1236       F  0.53308492  0.68960656  0.17687599    -0.13000
F1237       F  0.99433992  0.65350952  0.13309434    -0.15400
F1238       F  0.58370733  0.58265923  0.22931545    -0.15400
F1239       F  0.54533209  0.54740886  0.18548889    -0.13000
C1240       C  0.55010943  0.60944621  0.04982862     0.25000
C1241       C  0.51332492  0.60861800  0.05775440    -0.23100
C1242       C  0.49696333  0.62932433  0.02686778     0.19900
C1243       C  0.51707464  0.64879463  0.48712816     0.24900
C1244       C  0.55383954  0.64763643  0.47789433    -0.23100
C1245       C  0.57015937  0.62869944  0.51018814     0.19800
F1246       F  0.60562503  0.62796265  0.50274364    -0.13000
F1247       F  0.56656963  0.58877781  0.07825904    -0.15400
F1248       F  0.50049628  0.66697144  0.45665193    -0.15400
F1249       F  0.96147872  0.62983388  0.03471849    -0.13000
C1250       C  0.72067509  0.58453607  0.11776623     0.25000
C1251       C  0.75478791  0.59024027  0.09173163    -0.23100
C1252       C  0.77547774  0.61996535  0.09341372     0.19900
C1253       C  0.76346334  0.64170535  0.12426216     0.24900
C1254       C  0.73068672  0.63375790  0.15386624    -0.23100
C1255       C  0.70866173  0.60600634  0.14867184     0.19800
F1256       F  0.67627233  0.59803067  0.17538618    -0.13000
F1257       F  0.69994817  0.55645563  0.11567776    -0.15400
F1258       F  0.78502706  0.66879877  0.12733546    -0.15400
F1259       F  0.80873288  0.62588292  0.06885921    -0.13000
C1260       C  0.79806147  0.61555452  0.46895848     0.25000
C1261       C  0.78243054  0.58287245  0.99237617    -0.23100
C1262       C  0.75181530  0.57007894  0.48137614     0.19900
C1263       C  0.73626674  0.58989960  0.44915437     0.24900
C1264       C  0.75077507  0.62339516  0.42688855    -0.23100
C1265       C  0.78240459  0.63571047  0.43652478     0.19800
F1266       F  0.79764309  0.66770854  0.41573178    -0.13000
F1267       F  0.82787602  0.62836449  0.97833867    -0.15400
F1268       F  0.70652511  0.57628420  0.44044013    -0.15400
F1269       F  0.73592489  0.53874225  0.50376782    -0.13000
C1270       C  0.61025276  0.85752877  0.06862378     0.25000
C1271       C  0.57404323  0.85923199  0.07150277    -0.23100
C1272       C  0.55075936  0.83546459  0.10424569     0.19900
C1273       C  0.56322058  0.81272418  0.13665872     0.24900
C1274       C  0.59903106  0.81470655  0.13789852    -0.23100
C1275       C  0.62278197  0.83550766  0.10196848     0.19800
F1276       F  0.65776280  0.83652864  0.10097599    -0.13000
F1277       F  0.63305129  0.88024582  0.03684188    -0.15400
F1278       F  0.53957718  0.79219552  0.16996123    -0.15400
F1279       F  0.51557490  0.83816630  0.10928237    -0.13000
C1280       C  0.57160356  0.89611213  0.44273983     0.25000
C1281       C  0.54861836  0.88065771  0.48294391    -0.23100
C1282       C  0.53834327  0.84472168  0.48895697     0.19900
C1283       C  0.55182224  0.82453111  0.45658499     0.24900
C1284       C  0.57642210  0.83956831  0.41766135    -0.23100
C1285       C  0.58554012  0.87580793  0.41055329     0.19800
F1286       F  0.60863139  0.89151427  0.37288863    -0.13000
F1287       F  0.58270758  0.93039739  0.43627674    -0.15400
F1288       F  0.54254207  0.78966996  0.46491206    -0.15400
F1289       F  0.51653937  0.82844338  0.52720447    -0.13000
C1290       C  0.79061919  0.87064735  0.05439699     0.25000
C1291       C  0.82090654  0.85526451  0.03544259    -0.23100
C1292       C  0.83042516  0.82400888  0.05913378     0.19900
C1293       C  0.80951861  0.80757821  0.10013371     0.24900
C1294       C  0.77845834  0.82219136  0.11884956    -0.23100
C1295       C  0.76965529  0.85443929  0.09586154     0.19800
F1296       F  0.74009279  0.86972553  0.11250206    -0.13000
F1297       F  0.78047353  0.90046597  0.03183477    -0.15400
F1298       F  0.81926655  0.77666592  0.12060529    -0.15400
F1299       F  0.85911539  0.80821333  0.04087835    -0.13000
C1300       C  0.75286197  0.83648421  0.41699837     0.25000
C1301       C  0.75578105  0.80205194  0.40852016    -0.23100
C1302       C  0.77880132  0.78024192  0.42863955     0.19900
C1303       C  0.80221334  0.79425813  0.45065392     0.24900
C1304       C  0.80236828  0.82986333  0.45350644    -0.23100
C1305       C  0.77608541  0.85026489  0.43953676     0.19800
F1306       F  0.77589272  0.88480966  0.44237860    -0.13000
F1307       F  0.73015837  0.85796411  0.39962937    -0.15400
F1308       F  0.82691175  0.77399505  0.46535862    -0.15400
F1309       F  0.78063259  0.74608388  0.42403847    -0.13000
N1310       N  0.83817277  0.86661622  0.48906476    -0.02100
C1311       C  0.83486771  0.84788888  0.95686521     0.00500
C1312       C  0.86316450  0.85474258  0.92112047    -0.22400
C1313       C  0.88513879  0.87861410  0.93151414    -0.22600
C1314       C  0.86937309  0.88538633  0.47319170     0.00400
H1315       H  0.86629446  0.84514569  0.88972241     0.14200
H1316       H  0.90899150  0.89140079  0.90985173     0.14200
N1317       N  0.54302768  0.89894468  0.52069436    -0.02100
C1318       C  0.52793717  0.92995245  0.52509521     0.00500
C1319       C  0.53558453  0.94175713  0.56225129    -0.22400
C1320       C  0.55638910  0.91836113  0.58054168    -0.22600
C1321       C  0.56048290  0.89256999  0.55472369     0.00400
H1322       H  0.02512012  0.96389627  0.57654085     0.14200
H1323       H  0.56531776  0.91858950  0.61147812     0.14200
N1324       N  0.79362115  0.56477618  0.53166893    -0.02100
C1325       C  0.80930565  0.53374313  0.53283208     0.00500
C1326       C  0.79531718  0.51080036  0.57237837    -0.22400
C1327       C  0.77145159  0.52836040  0.59753926    -0.22600
C1328       C  0.77132197  0.56122187  0.57221043     0.00400
H1329       H  0.80508137  0.98580124  0.58423026     0.14200
H1330       H  0.75808273  0.51933379  0.63208166     0.14200
N1331       N  0.94040355  0.93944773  0.99101289    -0.35200
N1332       N  0.97084450  0.99956942  0.51328532    -0.55800
N1333       N  0.90779579  0.53929838  0.51753773    -0.35200
N1334       N  0.87547073  0.97665593  0.99827163    -0.55800
C1335       C  0.96888815  0.92636317  0.00515746     0.28400
C1336       C  0.91522925  0.91312727  0.00147901     0.28400
C1337       C  0.92373363  0.55230444  0.54709606     0.28400
C1338       C  0.87310675  0.54425865  0.52913959     0.28400
C1339       C  0.99985106  0.98339141  0.49747381     0.37000
C1340       C  0.98171710  0.53047092  0.52206110     0.37000
C1341       C  0.86603825  0.94756331  0.98372814     0.37000
C1342       C  0.85169018  0.00038619  0.48998135     0.37000
C1343       C  0.96156194  0.89130349  0.02453323    -0.20500
C1344       C  0.92790287  0.88269108  0.02111231    -0.20500
C1345       C  0.89926465  0.56756658  0.57594766    -0.20500
C1346       C  0.86743119  0.56266735  0.56454159    -0.20500
C1347       C  0.52935509  0.00538326  0.49339513    -0.21500
C1348       C  0.51789083  0.53460315  0.51036223    -0.21500
C1349       C  0.83660646  0.95300188  0.96537528    -0.21500
C1350       C  0.82732813  0.98637728  0.96971824    -0.21500
C1351       C  0.00016321  0.94636709  0.00294536    -0.16900
C1352       C  0.88220305  0.91545621  0.99020116    -0.16900
C1353       C  0.84626836  0.52968137  0.51139248    -0.16900
C1354       C  0.95960609  0.55005037  0.54931230    -0.16900
H1355       H  0.97784459  0.87410799  0.04144839     0.16000
H1356       H  0.91386192  0.85733800  0.03310822     0.18100
H1357       H  0.90367944  0.58017889  0.60318468     0.16000
H1358       H  0.84273212  0.57006153  0.58231918     0.16000
H1359       H  0.55645944  0.99899148  0.48467646     0.14300
H1360       H  0.53458467  0.55535021  0.51540770     0.14300
H1361       H  0.82245235  0.93442575  0.95198852     0.14300
H1362       H  0.80409270  0.99829824  0.96154203     0.14300
H1363       H  0.93893499  0.96419817  0.97258720     0.27600
H1364       H  0.91968995  0.52755200  0.49088247     0.27600
N1365       N  0.99287244  0.58392274  0.59440871    -0.02100
C1366       C  0.99580385  0.57891276  0.63821458     0.00500
C1367       C  0.97489181  0.54983526  0.66225354    -0.22400
C1368       C  0.95878658  0.53649221  0.63239210    -0.22600
C1369       C  0.97033002  0.55768857  0.59085831     0.00400
H1370       H  0.97200777  0.53918826  0.69762609     0.14200
H1371       H  0.94104834  0.51335128  0.63992417     0.14200
N1372       N  0.71118811  0.79032608  0.82248628    -0.04700
N1373       N  0.71481686  0.80780307  0.85464863    -0.56800
N1374       N  0.73622923  0.76653986  0.72096564    -0.04400
N1375       N  0.76159692  0.77206035  0.68452697    -0.59000
N1376       N  0.71584256  0.79296293  0.72066132    -0.04000
N1377       N  0.72673158  0.81681952  0.68398379    -0.56800
N1378       N  0.73195073  0.76405293  0.82237225    -0.03700
N1379       N  0.74973698  0.76295421  0.85444246    -0.59300
C1380       C  0.73886531  0.79023112  0.87447820     0.97500
C1381       C  0.75533985  0.80350872  0.66148387     0.97200
N1382       N  0.69377590  0.66138907  0.75490688    -0.04900
N1383       N  0.69208974  0.64098976  0.72549210    -0.57400
N1384       N  0.72380139  0.68281779  0.84036004    -0.03000
N1385       N  0.74751473  0.67399977  0.86478168    -0.58700
N1386       N  0.69589928  0.66095689  0.85389479    -0.04900
N1387       N  0.70038649  0.63658938  0.88755553    -0.57700
N1388       N  0.72136329  0.68369802  0.74095408    -0.02700
N1389       N  0.73919265  0.67856895  0.70160749    -0.58800
Mn1390     Mn  0.72958492  0.72425858  0.78045516     1.18400
C1391       C  0.72037609  0.65184869  0.69238180     0.99500
C1392       C  0.73264703  0.64509853  0.89435929     1.00200
N1393       N  0.63499821  0.79578676  0.73436495    -0.05000
N1394       N  0.63799276  0.81274658  0.69282536    -0.61300
N1395       N  0.60201127  0.77793891  0.84581643    -0.03800
N1396       N  0.57850594  0.78765554  0.87809706    -0.61900
N1397       N  0.62972227  0.80010020  0.83446316    -0.04500
N1398       N  0.62551912  0.82543019  0.85839842    -0.61500
N1399       N  0.60744157  0.77334789  0.74551579    -0.03400
N1400       N  0.59113721  0.77475187  0.71190206    -0.62200
Mn1401     Mn  0.67304523  0.79615255  0.77792617     1.10700
C1402       C  0.61049851  0.79929718  0.67917325     1.00800
C1403       C  0.59352150  0.81738062  0.88563923     1.00800
N1404       N  0.61247633  0.66973898  0.87297495    -0.04500
N1405       N  0.60346088  0.64911321  0.91257982    -0.59800
N1406       N  0.59277082  0.69187639  0.77049616    -0.03800
N1407       N  0.57072419  0.68702785  0.74426892    -0.56600
N1408       N  0.61322972  0.66558150  0.77372662    -0.05100
N1409       N  0.60557595  0.64240564  0.74977605    -0.59400
N1410       N  0.59106078  0.69538756  0.86999964    -0.04100
N1411       N  0.56696067  0.69261022  0.90739275    -0.56600
Mn1412     Mn  0.65373075  0.66333875  0.81482747     1.20200
Mn1413     Mn  0.59707289  0.73489003  0.80827439     1.10100
Cl1414     Cl  0.66334192  0.72962501  0.79565453    -0.84600
C1415       C  0.57521863  0.66381521  0.93376481     0.97800
C1416       C  0.57904087  0.65599330  0.73133982     0.97600
C1417       C  0.51673116  0.63612186  0.65616867     0.25000
C1418       C  0.51901132  0.59974866  0.65845580    -0.23100
C1419       C  0.54208656  0.58243327  0.68317104     0.19900
C1420       C  0.56211619  0.60082679  0.70564823     0.24900
C1421       C  0.55911965  0.63709999  0.70485381    -0.23100
C1422       C  0.53641598  0.65460704  0.67932991     0.19800
F1423       F  0.53308840  0.68960822  0.67687208    -0.13000
F1424       F  0.99434376  0.65350986  0.63309018    -0.15400
F1425       F  0.58370135  0.58265878  0.72932526    -0.15400
F1426       F  0.54532397  0.54740769  0.68550178    -0.13000
C1427       C  0.55010709  0.60944576  0.54983401     0.25000
C1428       C  0.51332256  0.60861703  0.55775986    -0.23100
C1429       C  0.49696073  0.62932324  0.52687344     0.19900
C1430       C  0.51707756  0.64879570  0.98712267     0.24900
C1431       C  0.55384244  0.64763721  0.97788923    -0.23100
C1432       C  0.57016195  0.62869973  0.01018291     0.19800
F1433       F  0.60562756  0.62796223  0.00273849    -0.13000
F1434       F  0.56656753  0.58877792  0.57826472    -0.15400
F1435       F  0.50049956  0.66697281  0.95664625    -0.15400
F1436       F  0.96147825  0.62983248  0.53472204    -0.13000
C1437       C  0.72067665  0.58453789  0.61776342     0.25000
C1438       C  0.75478992  0.59024064  0.59173012    -0.23100
C1439       C  0.77548027  0.61996559  0.59341139     0.19900
C1440       C  0.76346585  0.64170689  0.62425815     0.24900
C1441       C  0.73068860  0.63376096  0.65386113    -0.23100
C1442       C  0.70866306  0.60600973  0.64866697     0.19800
F1443       F  0.67627284  0.59803590  0.67537972    -0.13000
F1444       F  0.69994940  0.55645741  0.61567587    -0.15400
F1445       F  0.78503005  0.66880006  0.62733103    -0.15400
F1446       F  0.80873579  0.62588184  0.56885788    -0.13000
C1447       C  0.79806187  0.61555692  0.96895774     0.25000
C1448       C  0.78243148  0.58286940  0.49237643    -0.23100
C1449       C  0.75181435  0.57008270  0.98137528     0.19900
C1450       C  0.73626715  0.58990336  0.94915224     0.24900
C1451       C  0.75077693  0.62339819  0.92688552    -0.23100
C1452       C  0.78240638  0.63571289  0.93652253     0.19800
F1453       F  0.79764622  0.66771024  0.91572860    -0.13000
F1454       F  0.82787562  0.62836281  0.47833862    -0.15400
F1455       F  0.70652541  0.57628859  0.94043752    -0.15400
F1456       F  0.73592276  0.53874657  0.00376715    -0.13000
C1457       C  0.61025216  0.85753154  0.56862211     0.25000
C1458       C  0.57404240  0.85923362  0.57150233    -0.23100
C1459       C  0.55075963  0.83546507  0.60424506     0.19900
C1460       C  0.56322211  0.81272469  0.63665688     0.24900
C1461       C  0.59903271  0.81470834  0.63789589    -0.23100
C1462       C  0.62278262  0.83551041  0.60196570     0.19800
F1463       F  0.65776365  0.83653208  0.60097187    -0.13000
F1464       F  0.63304965  0.88024952  0.53684009    -0.15400
F1465       F  0.53957967  0.79219454  0.66995898    -0.15400
F1466       F  0.51557494  0.83816532  0.60928277    -0.13000
C1467       C  0.57160502  0.89611177  0.94274008     0.25000
C1468       C  0.54861974  0.88065665  0.98294376    -0.23100
C1469       C  0.53834535  0.84472052  0.98895604     0.19900
C1470       C  0.55182502  0.82453060  0.95658356     0.24900
C1471       C  0.57642490  0.83956855  0.91766025    -0.23100
C1472       C  0.58554230  0.87580825  0.91055310     0.19800
F1473       F  0.60863362  0.89151530  0.87288889    -0.13000
F1474       F  0.58270843  0.93039715  0.93627785    -0.15400
F1475       F  0.54254550  0.78966932  0.96490981    -0.15400
F1476       F  0.51654157  0.82844158  0.02720330    -0.13000
C1477       C  0.79062068  0.87065122  0.55439382     0.25000
C1478       C  0.82090798  0.85526865  0.53543883    -0.23100
C1479       C  0.83042732  0.82401330  0.55912987     0.19900
C1480       C  0.80952077  0.80758195  0.60012944     0.24900
C1481       C  0.77846032  0.82219463  0.61884559    -0.23100
C1482       C  0.76965703  0.85444274  0.59585828     0.19800
F1483       F  0.74009448  0.86972866  0.61249934    -0.13000
F1484       F  0.78047493  0.90047013  0.53183235    -0.15400
F1485       F  0.81926880  0.77666939  0.62060022    -0.15400
F1486       F  0.85911827  0.80821869  0.54087463    -0.13000
C1487       C  0.75286393  0.83648437  0.91699690     0.25000
C1488       C  0.75578194  0.80205185  0.90851942    -0.23100
C1489       C  0.77880045  0.78024079  0.92864077     0.19900
C1490       C  0.80221241  0.79425622  0.95065599     0.24900
C1491       C  0.80236862  0.82986160  0.95350774    -0.23100
C1492       C  0.77608710  0.85026422  0.93953628     0.19800
F1493       F  0.77589564  0.88480913  0.94237740    -0.13000
F1494       F  0.73016183  0.85796523  0.89962620    -0.15400
F1495       F  0.82690943  0.77399208  0.96536246    -0.15400
F1496       F  0.78063000  0.74608239  0.92404092    -0.13000
loop_ 
_geom_bond_atom_site_label_1 
_geom_bond_atom_site_label_2 
_geom_bond_distance 
_geom_bond_site_symmetry_2 
_ccdc_geom_bond_type 
N1            C5   1.358       .  A
N1          C189   1.352       .  A
N1          C169   1.442   1_556  S
C2          N188   1.352       .  A
C2            C3   1.379       .  A
C2          C182   1.463       .  S
C3            C4   1.367       .  A
C3            H6   1.082       .  S
C4          C192   1.381       .  A
C4            H7   1.082       .  S
C5          C191   1.381       .  A
C5          C230   1.474       .  S
N8           C12   1.356       .  A
N8            C9   1.367       .  A
N8          C346   1.448   1_554  S
C9           C10   1.388       .  A
C9          C977   1.494       .  S
C10          C11   1.359       .  A
C10         H761   1.083       .  S
C11          C12   1.375       .  A
C11          H14   1.083       .  S
C12         C149   1.461       .  S
H13         C758   1.083       .  S
N15          C19   1.356       .  A
N15          C16   1.362       .  A
N15         C139   1.447   1_554  S
C16          C17   1.385       .  A
C16          C44   1.484       .  S
C17          C18   1.361       .  A
C17         H394   1.083   1_545  S
C18          C19   1.378       .  A
C18          H21   1.082       .  S
C19         C129   1.468       .  S
H20         C391   1.083       .  S
N22          C27   1.349       .  A
N22          C26   1.353       .  A
N22          H54   1.038       .  S
N23          C30   1.352   1_554  A
N23         C405   1.350       .  A
N24          C29   1.355       .  A
N24          C28   1.359       .  A
N24          H55   1.041   1_554  S
N25          C32   1.352       .  A
N25         C220   1.353       .  A
C26          C34   1.387       .  A
C26          C42   1.413       .  A
C27          C43   1.402       .  A
C27          C35   1.382       .  A
C28          C36   1.385       .  A
C28          C45   1.419       .  A
C29          C44   1.423       .  A
C29          C37   1.389       .  A
C30         C229   1.417   1_556  A
C30         C786   1.387       .  A
C31         N397   1.350   1_545  A
C31          C45   1.409       .  A
C31         C787   1.382       .  A
C32          C40   1.385       .  A
C32          C43   1.412       .  A
C33         N212   1.353       .  A
C33         C228   1.386       .  A
C33         C418   1.409   1_556  A
C34          C35   1.376       .  A
C34          H46   1.076       .  S
C35          H47   1.082       .  S
C36          C37   1.375       .  A
C36          H48   1.082       .  S
C37          H49   1.079       .  S
C38         C778   1.387   1_455  A
C38         C413   1.375   1_556  A
C38          H50   1.083       .  S
C39         C779   1.382   1_455  A
C39         C412   1.375   1_554  A
C39          H51   1.074       .  S
C40          C41   1.374       .  A
C40          H52   1.081       .  S
C41         C220   1.386       .  A
C41          H53   1.083       .  S
C42         C217   1.417       .  A
C42         C944   1.494       .  S
C43         C192   1.474       .  S
C44         C407   1.409   1_554  A
C45          C60   1.500       .  S
N56          C60   1.361       .  A
N56          C57   1.362       .  A
N56         C867   1.436       .  S
C57          C58   1.383       .  A
C57         C857   1.493       .  S
C58          C59   1.376       .  A
C58          H61   1.082       .  S
C59          C60   1.383       .  A
C59          H62   1.082       .  S
N63          N64   1.322       .  A
N63          N69   1.317       .  A
N63         Mn92   2.213       .  S
N64          C71   1.357       .  A
N65          N67   1.312       .  A
N65          N66   1.322       .  A
N65         Mn81   2.212       .  S
N66          C72   1.357       .  A
N67          N68   1.322       .  A
N67         Mn92   2.196       .  S
N68          C72   1.353       .  A
N69          N70   1.315       .  A
N69         Mn81   2.188       .  S
N70          C71   1.349       .  A
C71         C179   1.477       .  S
C72         C172   1.495       .  S
N73          N79   1.316       .  A
N73          N74   1.312       .  A
N73        Mn103   2.181       .  S
N74          C82   1.347       .  A
N75          N76   1.323       .  A
N75          N77   1.314       .  A
N75         Mn81   2.204       .  S
N76          C83   1.353       .  A
N77          N78   1.323       .  A
N77        Mn103   2.223       .  S
N78          C83   1.359       .  A
N79          N80   1.322       .  A
N79         Mn81   2.203       .  S
N80          C82   1.357       .  A
Mn81       Cl105   2.551       .  S
C82         C132   1.475       .  S
C83         C142   1.499       .  S
N84          N85   1.319       .  A
N84          N90   1.317       .  A
N84         Mn92   2.197       .  S
N85          C93   1.353       .  A
N86          N88   1.315       .  A
N86          N87   1.324       .  A
N86        Mn104   2.214       .  S
N87          C94   1.356       .  A
N88          N89   1.321       .  A
N88         Mn92   2.200       .  S
N89          C94   1.353       .  A
N90          N91   1.317       .  A
N90        Mn104   2.194       .  S
N91          C93   1.351       .  A
Mn92       Cl105   2.547       .  S
C93         C152   1.472       .  S
C94         C162   1.488       .  S
N95          N96   1.319       .  A
N95         N101   1.318       .  A
N95        Mn103   2.209       .  S
N96         C106   1.354       .  A
N97          N98   1.326       .  A
N97          N99   1.313       .  A
N97        Mn104   2.214       .  S
N98         C107   1.358       .  A
N99         N100   1.322       .  A
N99        Mn103   2.213       .  S
N100        C107   1.355       .  A
N101        N102   1.320       .  A
N101       Mn104   2.201       .  S
N102        C106   1.352       .  A
Mn103      Cl105   2.538       .  S
Mn104      Cl105   2.554       .  S
C106        C122   1.473       .  S
C107        C112   1.498       .  S
C108        C109   1.406       .  A
C108        C113   1.409       .  A
C108        F863   1.357   1_455  S
C109        C110   1.406       .  A
C109        C805   1.493   1_455  S
C110        C111   1.401       .  A
C110        F117   1.358       .  S
C111        C112   1.411       .  A
C111        F116   1.358       .  S
C112        C113   1.413       .  A
C113        F114   1.357       .  S
F115        C856   1.357       .  S
C118        C119   1.405       .  A
C118        C310   1.393       .  A
C118        F125   1.356       .  S
C119        N804   1.436   1_455  S
C119        C120   1.405   1_455  A
C120        C308   1.399   1_654  A
C120        F875   1.357       .  S
C121        C122   1.408       .  A
C121        C307   1.399   1_455  A
C121        F126   1.358       .  S
C122        C123   1.403       .  A
C123        C305   1.393       .  A
C123        F124   1.358       .  S
F127        C868   1.357       .  S
C128        C129   1.399       .  A
C128        C133   1.390       .  A
C128        F135   1.358       .  S
C129        C130   1.405       .  A
C130        C131   1.397       .  A
C130        F137   1.356       .  S
C131        C132   1.406       .  A
C131        F136   1.358       .  S
C132        C133   1.411       .  A
C133        F134   1.358       .  S
C138        C143   1.411       .  A
C138        C326   1.404       .  A
C138        F332   1.357       .  S
C139        C325   1.404       .  A
C139        C327   1.407       .  A
C140        C141   1.398       .  A
C140        C326   1.407       .  A
C140        F147   1.357       .  S
C141        C142   1.408       .  A
C141        F146   1.357       .  S
C142        C143   1.417       .  A
C143        F144   1.358       .  S
F145        C325   1.357       .  S
C148        C149   1.401       .  A
C148        C153   1.398       .  A
C148        F155   1.358       .  S
C149        C150   1.402       .  A
C150        C151   1.390       .  A
C150        F157   1.358       .  S
C151        C152   1.406       .  A
C151        F156   1.358       .  S
C152        C153   1.408       .  A
C153        F154   1.358       .  S
C158        C159   1.405       .  A
C158        C163   1.405       .  A
C158        F165   1.357       .  S
C159        N195   1.448       .  S
C159        C160   1.411       .  A
C160        C161   1.401       .  A
C160        F167   1.353       .  S
C161        C162   1.405       .  A
C161        F166   1.358       .  S
C162        C163   1.410       .  A
C163        F164   1.358       .  S
C168        C169   1.403       .  A
C168        C173   1.407       .  A
C168        F175   1.356       .  S
C169        C170   1.404       .  A
C170        C171   1.399       .  A
C170        F177   1.357       .  S
C171        C172   1.409       .  A
C171        F176   1.357       .  S
C172        C173   1.415       .  A
C173        F174   1.358       .  S
C178        C179   1.407       .  A
C178        C183   1.396       .  A
C178        F185   1.357       .  S
C179        C180   1.411       .  A
C180        C181   1.395       .  A
C180        F187   1.358       .  S
C181        C182   1.398       .  A
C181        F186   1.358       .  S
C182        C183   1.402       .  A
C183        F184   1.357       .  S
N188        C192   1.358       .  A
N188        C356   1.442       .  S
C189        C190   1.379       .  A
C189        C369   1.463       .  S
C190        C191   1.367       .  A
C190        H193   1.082       .  S
C191        H194   1.082       .  S
N195        C199   1.356       .  A
N195        C196   1.367       .  A
C196        C197   1.388       .  A
C196        C790   1.494       .  S
C197        C198   1.359       .  A
C197        H948   1.083       .  S
C198        C199   1.375       .  A
C198        H201   1.083       .  S
C199        C336   1.461       .  S
H200        C945   1.083       .  S
N202        C206   1.356       .  A
N202        C203   1.362       .  A
N202        C326   1.447       .  S
C203        C204   1.385       .  A
C203        C231   1.484       .  S
C204        C205   1.361       .  A
C204        H581   1.083   1_545  S
C205        C206   1.378       .  A
C205        H208   1.082       .  S
C206        C316   1.468       .  S
H207        C578   1.083       .  S
N209        C214   1.349   1_556  A
N209        C213   1.353   1_556  A
N209        H241   1.038       .  S
N210        C217   1.352       .  A
N210        C592   1.350       .  A
N211        C216   1.355       .  A
N211        C215   1.359       .  A
N211        H242   1.041       .  S
N212        C219   1.352       .  A
C213        C221   1.387       .  A
C213        C229   1.413       .  A
C214        C230   1.402   1_554  A
C214        C222   1.382       .  A
C215        C223   1.385       .  A
C215        C232   1.419       .  A
C216        C231   1.423       .  A
C216        C224   1.389       .  A
C217        C973   1.387       .  A
C218        N584   1.350   1_545  A
C218        C232   1.409       .  A
C218        C974   1.382       .  A
C219        C227   1.385       .  A
C219        C230   1.412       .  A
C220        C605   1.409       .  A
C221        C222   1.376       .  A
C221        H233   1.076       .  S
C222        H234   1.082       .  S
C223        C224   1.375       .  A
C223        H235   1.082       .  S
C224        H236   1.079       .  S
C225        C965   1.387   1_455  A
C225        C600   1.375       .  A
C225        H237   1.083       .  S
C226        C966   1.382   1_455  A
C226        C599   1.375       .  A
C226        H238   1.074       .  S
C227        C228   1.374       .  A
C227        H239   1.081       .  S
C228        H240   1.083       .  S
C229        C757   1.494       .  S
C231        C594   1.409       .  A
C232        C247   1.500       .  S
N243        C247   1.361       .  A
N243        C244   1.362       .  A
N243       C1054   1.436       .  S
C244        C245   1.383       .  A
C244       C1044   1.493       .  S
C245        C246   1.376       .  A
C245        H248   1.082       .  S
C246        C247   1.383       .  A
C246        H249   1.082       .  S
N250        N251   1.322       .  A
N250        N256   1.317       .  A
N250       Mn279   2.213       .  S
N251        C258   1.357       .  A
N252        N254   1.312       .  A
N252        N253   1.322       .  A
N252       Mn268   2.212       .  S
N253        C259   1.357       .  A
N254        N255   1.322       .  A
N254       Mn279   2.196       .  S
N255        C259   1.353       .  A
N256        N257   1.315       .  A
N256       Mn268   2.188       .  S
N257        C258   1.349       .  A
C258        C366   1.477       .  S
C259        C359   1.495       .  S
N260        N266   1.316       .  A
N260        N261   1.312       .  A
N260       Mn290   2.181       .  S
N261        C269   1.347       .  A
N262        N263   1.323       .  A
N262        N264   1.314       .  A
N262       Mn268   2.204       .  S
N263        C270   1.353       .  A
N264        N265   1.323       .  A
N264       Mn290   2.223       .  S
N265        C270   1.359       .  A
N266        N267   1.322       .  A
N266       Mn268   2.203       .  S
N267        C269   1.357       .  A
Mn268      Cl292   2.551       .  S
C269        C319   1.475       .  S
C270        C329   1.499       .  S
N271        N272   1.319       .  A
N271        N277   1.317       .  A
N271       Mn279   2.197       .  S
N272        C280   1.353       .  A
N273        N275   1.315       .  A
N273        N274   1.324       .  A
N273       Mn291   2.214       .  S
N274        C281   1.356       .  A
N275        N276   1.321       .  A
N275       Mn279   2.200       .  S
N276        C281   1.353       .  A
N277        N278   1.317       .  A
N277       Mn291   2.194       .  S
N278        C280   1.351       .  A
Mn279      Cl292   2.547       .  S
C280        C339   1.472       .  S
C281        C349   1.488       .  S
N282        N283   1.319       .  A
N282        N288   1.318       .  A
N282       Mn290   2.209       .  S
N283        C293   1.354       .  A
N284        N285   1.326       .  A
N284        N286   1.313       .  A
N284       Mn291   2.214       .  S
N285        C294   1.358       .  A
N286        N287   1.322       .  A
N286       Mn290   2.213       .  S
N287        C294   1.355       .  A
N288        N289   1.320       .  A
N288       Mn291   2.201       .  S
N289        C293   1.352       .  A
Mn290      Cl292   2.538       .  S
Mn291      Cl292   2.554       .  S
C293        C309   1.473       .  S
C294        C299   1.498       .  S
C295        C296   1.406       .  A
C295        C300   1.409       .  A
C295       F1050   1.357   1_455  S
C296        C297   1.406       .  A
C296        C992   1.493   1_455  S
C297        C298   1.401       .  A
C297        F304   1.358       .  S
C298        C299   1.411       .  A
C298        F303   1.358       .  S
C299        C300   1.413       .  A
C300        F301   1.357       .  S
F302       C1043   1.357       .  S
C305        C306   1.405       .  A
C305        F312   1.356       .  S
C306        N991   1.436   1_455  S
C306        C307   1.405   1_455  A
C307       F1062   1.357       .  S
C308        C309   1.408       .  A
C308        F313   1.358       .  S
C309        C310   1.403   1_556  A
C310        F311   1.358       .  S
F314       C1055   1.357       .  S
C315        C316   1.399       .  A
C315        C320   1.390       .  A
C315        F322   1.358       .  S
C316        C317   1.405       .  A
C317        C318   1.397       .  A
C317        F324   1.356       .  S
C318        C319   1.406       .  A
C318        F323   1.358       .  S
C319        C320   1.411       .  A
C320        F321   1.358       .  S
C325        C330   1.411       .  A
C327        C328   1.398       .  A
C327        F334   1.357   1_556  S
C328        C329   1.408       .  A
C328        F333   1.357       .  S
C329        C330   1.417       .  A
C330        F331   1.358       .  S
C335        C336   1.401       .  A
C335        C340   1.398       .  A
C335        F342   1.358       .  S
C336        C337   1.402       .  A
C337        C338   1.390       .  A
C337        F344   1.358       .  S
C338        C339   1.406       .  A
C338        F343   1.358       .  S
C339        C340   1.408       .  A
C340        F341   1.358       .  S
C345        C346   1.405       .  A
C345        C350   1.405       .  A
C345        F352   1.357       .  S
C346        C347   1.411       .  A
C347        C348   1.401       .  A
C347        F354   1.353   1_556  S
C348        C349   1.405       .  A
C348        F353   1.358       .  S
C349        C350   1.410       .  A
C350        F351   1.358       .  S
C355        C356   1.403       .  A
C355        C360   1.407       .  A
C355        F362   1.356       .  S
C356        C357   1.404       .  A
C357        C358   1.399       .  A
C357        F364   1.357       .  S
C358        C359   1.409       .  A
C358        F363   1.357       .  S
C359        C360   1.415       .  A
C360        F361   1.358       .  S
C365        C366   1.407       .  A
C365        C370   1.396       .  A
C365        F372   1.357       .  S
C366        C367   1.411       .  A
C367        C368   1.395       .  A
C367        F374   1.358       .  S
C368        C369   1.398       .  A
C368        F373   1.358       .  S
C369        C370   1.402       .  A
C370        F371   1.357       .  S
N375        C379   1.358       .  A
N375        C563   1.352       .  A
N375        C543   1.442   1_556  S
C376        N562   1.352       .  A
C376        C377   1.379       .  A
C376        C556   1.463       .  S
C377        C378   1.367       .  A
C377        H380   1.082       .  S
C378        C566   1.381       .  A
C378        H381   1.082       .  S
C379        C565   1.381       .  A
C379        C604   1.474       .  S
N382        C386   1.356       .  A
N382        C383   1.367       .  A
N382        C720   1.448   1_554  S
C383        C384   1.388       .  A
C383       C1351   1.494       .  S
C384        C385   1.359       .  A
C384       H1135   1.083       .  S
C385        C386   1.375       .  A
C385        H388   1.083       .  S
C386        C523   1.461       .  S
H387       C1132   1.083       .  S
N389        C393   1.356       .  A
N389        C390   1.362       .  A
N389        C513   1.447   1_554  S
C390        C391   1.385       .  A
C390        C418   1.484       .  S
C391        C392   1.361       .  A
C392        C393   1.378       .  A
C392        H395   1.082       .  S
C393        C503   1.468       .  S
N396        C401   1.349       .  A
N396        C400   1.353       .  A
N396        H428   1.039       .  S
N397        C404   1.352   1_554  A
N398        C403   1.355       .  A
N398        C402   1.359       .  A
N398        H429   1.041   1_554  S
N399        C406   1.352       .  A
N399        C594   1.353   1_565  A
C400        C408   1.387       .  A
C400        C416   1.413       .  A
C401        C417   1.402       .  A
C401        C409   1.382       .  A
C402        C410   1.385       .  A
C402        C419   1.419       .  A
C403        C418   1.423       .  A
C403        C411   1.389       .  A
C404        C603   1.417   1_556  A
C404       C1160   1.387   1_565  A
C405        C419   1.409       .  A
C405       C1161   1.382       .  A
C406        C414   1.385       .  A
C406        C417   1.412       .  A
C407        N586   1.353   1_545  A
C407        C602   1.386   1_545  A
C408        C409   1.376       .  A
C408        H420   1.076       .  S
C409        H421   1.082       .  S
C410        C411   1.375       .  A
C410        H422   1.082       .  S
C411        H423   1.079       .  S
C412       C1152   1.387   1_445  A
C412        H424   1.083   1_545  S
C413       C1153   1.382   1_455  A
C413        H425   1.074       .  S
C414        C415   1.374       .  A
C414        H426   1.081       .  S
C415        C594   1.386   1_565  A
C415        H427   1.083       .  S
C416        C591   1.417       .  A
C416       C1318   1.494       .  S
C417        C566   1.474       .  S
C419        C434   1.500       .  S
N430        C434   1.361       .  A
N430        C431   1.362       .  A
N430       C1241   1.436       .  S
C431        C432   1.383       .  A
C431       C1231   1.493       .  S
C432        C433   1.376       .  A
C432        H435   1.082       .  S
C433        C434   1.383       .  A
C433        H436   1.082       .  S
N437        N438   1.322       .  A
N437        N443   1.317       .  A
N437       Mn466   2.213       .  S
N438        C445   1.357       .  A
N439        N441   1.312       .  A
N439        N440   1.322       .  A
N439       Mn455   2.212       .  S
N440        C446   1.357       .  A
N441        N442   1.322       .  A
N441       Mn466   2.196       .  S
N442        C446   1.353       .  A
N443        N444   1.315       .  A
N443       Mn455   2.188       .  S
N444        C445   1.349       .  A
C445        C553   1.477       .  S
C446        C546   1.495       .  S
N447        N453   1.316       .  A
N447        N448   1.312       .  A
N447       Mn477   2.181       .  S
N448        C456   1.347       .  A
N449        N450   1.323       .  A
N449        N451   1.314       .  A
N449       Mn455   2.204       .  S
N450        C457   1.353       .  A
N451        N452   1.323       .  A
N451       Mn477   2.223       .  S
N452        C457   1.359       .  A
N453        N454   1.322       .  A
N453       Mn455   2.203       .  S
N454        C456   1.357       .  A
Mn455      Cl479   2.551       .  S
C456        C506   1.475       .  S
C457        C516   1.499       .  S
N458        N459   1.319       .  A
N458        N464   1.317       .  A
N458       Mn466   2.197       .  S
N459        C467   1.353       .  A
N460        N462   1.315       .  A
N460        N461   1.324       .  A
N460       Mn478   2.214       .  S
N461        C468   1.356       .  A
N462        N463   1.321       .  A
N462       Mn466   2.200       .  S
N463        C468   1.353       .  A
N464        N465   1.317       .  A
N464       Mn478   2.194       .  S
N465        C467   1.351       .  A
Mn466      Cl479   2.547       .  S
C467        C526   1.472       .  S
C468        C536   1.488       .  S
N469        N470   1.319       .  A
N469        N475   1.318       .  A
N469       Mn477   2.209       .  S
N470        C480   1.354       .  A
N471        N472   1.326       .  A
N471        N473   1.313       .  A
N471       Mn478   2.214       .  S
N472        C481   1.358       .  A
N473        N474   1.322       .  A
N473       Mn477   2.213       .  S
N474        C481   1.355       .  A
N475        N476   1.320       .  A
N475       Mn478   2.201       .  S
N476        C480   1.352       .  A
Mn477      Cl479   2.538       .  S
Mn478      Cl479   2.554       .  S
C480        C496   1.473       .  S
C481        C486   1.498       .  S
C482        C483   1.406       .  A
C482        C487   1.409       .  A
C482       F1237   1.357   1_455  S
C483        C484   1.406       .  A
C483       C1179   1.493   1_455  S
C484        C485   1.401       .  A
C484        F491   1.358       .  S
C485        C486   1.411       .  A
C485        F490   1.358       .  S
C486        C487   1.413       .  A
C487        F488   1.357       .  S
F489       C1230   1.357       .  S
C492        C493   1.405       .  A
C492        C684   1.393       .  A
C492        F499   1.356       .  S
C493       N1178   1.436   1_455  S
C493        C494   1.405   1_455  A
C494        C682   1.399   1_654  A
C494       F1249   1.357       .  S
C495        C681   1.399   1_455  A
C495        C496   1.408       .  A
C495        F500   1.358       .  S
C496        C497   1.403       .  A
C497        C679   1.393       .  A
C497        F498   1.358       .  S
F501       C1242   1.357       .  S
C502        C503   1.399       .  A
C502        C507   1.390       .  A
C502        F509   1.358       .  S
C503        C504   1.405       .  A
C504        C505   1.397       .  A
C504        F511   1.356       .  S
C505        C506   1.406       .  A
C505        F510   1.358       .  S
C506        C507   1.411       .  A
C507        F508   1.358       .  S
C512        C700   1.404       .  A
C512        C517   1.411       .  A
C512        F706   1.357       .  S
C513        C699   1.404       .  A
C513        C701   1.407       .  A
C514        C700   1.407       .  A
C514        C515   1.398       .  A
C514        F521   1.357       .  S
C515        C516   1.408       .  A
C515        F520   1.357       .  S
C516        C517   1.417       .  A
C517        F518   1.358       .  S
F519        C699   1.357       .  S
C522        C523   1.401       .  A
C522        C527   1.398       .  A
C522        F529   1.358       .  S
C523        C524   1.402       .  A
C524        C525   1.390       .  A
C524        F531   1.358       .  S
C525        C526   1.406       .  A
C525        F530   1.358       .  S
C526        C527   1.408       .  A
C527        F528   1.358       .  S
C532        C533   1.405       .  A
C532        C537   1.405       .  A
C532        F539   1.357       .  S
C533        N569   1.448       .  S
C533        C534   1.411       .  A
C534        C535   1.401       .  A
C534        F541   1.353       .  S
C535        C536   1.405       .  A
C535        F540   1.358       .  S
C536        C537   1.410       .  A
C537        F538   1.358       .  S
C542        C543   1.403       .  A
C542        C547   1.407       .  A
C542        F549   1.356       .  S
C543        C544   1.404       .  A
C544        C545   1.399       .  A
C544        F551   1.357       .  S
C545        C546   1.409       .  A
C545        F550   1.357       .  S
C546        C547   1.415       .  A
C547        F548   1.358       .  S
C552        C553   1.407       .  A
C552        C557   1.396       .  A
C552        F559   1.357       .  S
C553        C554   1.411       .  A
C554        C555   1.395       .  A
C554        F561   1.358       .  S
C555        C556   1.398       .  A
C555        F560   1.358       .  S
C556        C557   1.402       .  A
C557        F558   1.357       .  S
N562        C566   1.358       .  A
N562        C730   1.442       .  S
C563        C564   1.379       .  A
C563        C743   1.463       .  S
C564        C565   1.367       .  A
C564        H567   1.082       .  S
C565        H568   1.082       .  S
N569        C573   1.356       .  A
N569        C570   1.367       .  A
C570        C571   1.388       .  A
C570       C1164   1.494       .  S
C571        C572   1.359       .  A
C571       H1322   1.083       .  S
C572        C573   1.375       .  A
C572        H575   1.083       .  S
C573        C710   1.461       .  S
H574       C1319   1.083       .  S
N576        C580   1.356       .  A
N576        C577   1.362       .  A
N576        C700   1.447       .  S
C577        C578   1.385       .  A
C577        C605   1.484       .  S
C578        C579   1.361       .  A
C579        C580   1.378       .  A
C579        H582   1.082       .  S
C580        C690   1.468       .  S
N583        C588   1.349   1_556  A
N583        C587   1.353   1_556  A
N583        H615   1.038       .  S
N584        C591   1.352       .  A
N585        C590   1.355       .  A
N585        C589   1.359       .  A
N585        H616   1.041       .  S
N586        C593   1.352       .  A
C587        C595   1.387       .  A
C587        C603   1.413       .  A
C588        C604   1.402   1_554  A
C588        C596   1.382       .  A
C589        C597   1.385       .  A
C589        C606   1.419       .  A
C590        C605   1.423       .  A
C590        C598   1.389       .  A
C591       C1347   1.387   1_565  A
C592        C606   1.409       .  A
C592       C1348   1.382       .  A
C593        C601   1.385       .  A
C593        C604   1.412       .  A
C595        C596   1.376       .  A
C595        H607   1.076       .  S
C596        H608   1.082       .  S
C597        C598   1.375       .  A
C597        H609   1.082       .  S
C598        H610   1.079       .  S
C599       C1339   1.387   1_445  A
C599        H611   1.083   1_545  S
C600       C1340   1.382   1_455  A
C600        H612   1.074       .  S
C601        C602   1.374       .  A
C601        H613   1.081       .  S
C602        H614   1.083       .  S
C603       C1131   1.494       .  S
C606        C621   1.500       .  S
N617        C621   1.361       .  A
N617        C618   1.362       .  A
N617       C1428   1.436       .  S
C618        C619   1.383       .  A
C618       C1418   1.493       .  S
C619        C620   1.376       .  A
C619        H622   1.082       .  S
C620        C621   1.383       .  A
C620        H623   1.082       .  S
N624        N625   1.322       .  A
N624        N630   1.317       .  A
N624       Mn653   2.213       .  S
N625        C632   1.357       .  A
N626        N628   1.312       .  A
N626        N627   1.322       .  A
N626       Mn642   2.212       .  S
N627        C633   1.357       .  A
N628        N629   1.322       .  A
N628       Mn653   2.196       .  S
N629        C633   1.353       .  A
N630        N631   1.315       .  A
N630       Mn642   2.188       .  S
N631        C632   1.349       .  A
C632        C740   1.477       .  S
C633        C733   1.495       .  S
N634        N640   1.316       .  A
N634        N635   1.312       .  A
N634       Mn664   2.181       .  S
N635        C643   1.347       .  A
N636        N637   1.323       .  A
N636        N638   1.314       .  A
N636       Mn642   2.204       .  S
N637        C644   1.353       .  A
N638        N639   1.323       .  A
N638       Mn664   2.223       .  S
N639        C644   1.359       .  A
N640        N641   1.322       .  A
N640       Mn642   2.203       .  S
N641        C643   1.357       .  A
Mn642      Cl666   2.551       .  S
C643        C693   1.475       .  S
C644        C703   1.499       .  S
N645        N646   1.319       .  A
N645        N651   1.317       .  A
N645       Mn653   2.197       .  S
N646        C654   1.353       .  A
N647        N649   1.315       .  A
N647        N648   1.324       .  A
N647       Mn665   2.214       .  S
N648        C655   1.356       .  A
N649        N650   1.321       .  A
N649       Mn653   2.200       .  S
N650        C655   1.353       .  A
N651        N652   1.317       .  A
N651       Mn665   2.194       .  S
N652        C654   1.351       .  A
Mn653      Cl666   2.547       .  S
C654        C713   1.472       .  S
C655        C723   1.488       .  S
N656        N657   1.319       .  A
N656        N662   1.318       .  A
N656       Mn664   2.209       .  S
N657        C667   1.354       .  A
N658        N659   1.326       .  A
N658        N660   1.313       .  A
N658       Mn665   2.214       .  S
N659        C668   1.358       .  A
N660        N661   1.322       .  A
N660       Mn664   2.213       .  S
N661        C668   1.355       .  A
N662        N663   1.320       .  A
N662       Mn665   2.201       .  S
N663        C667   1.352       .  A
Mn664      Cl666   2.538       .  S
Mn665      Cl666   2.554       .  S
C667        C683   1.473       .  S
C668        C673   1.498       .  S
C669        C670   1.406       .  A
C669        C674   1.409       .  A
C669       F1424   1.357   1_455  S
C670        C671   1.406       .  A
C670       C1366   1.493   1_455  S
C671        C672   1.401       .  A
C671        F678   1.358       .  S
C672        C673   1.411       .  A
C672        F677   1.358       .  S
C673        C674   1.413       .  A
C674        F675   1.357       .  S
F676       C1417   1.357       .  S
C679        C680   1.405       .  A
C679        F686   1.356       .  S
C680       N1365   1.436   1_455  S
C680        C681   1.405   1_455  A
C681       F1436   1.357       .  S
C682        C683   1.408       .  A
C682        F687   1.358       .  S
C683        C684   1.403   1_556  A
C684        F685   1.358       .  S
F688       C1429   1.357       .  S
C689        C690   1.399       .  A
C689        C694   1.390       .  A
C689        F696   1.358       .  S
C690        C691   1.405       .  A
C691        C692   1.397       .  A
C691        F698   1.356       .  S
C692        C693   1.406       .  A
C692        F697   1.358       .  S
C693        C694   1.411       .  A
C694        F695   1.358       .  S
C699        C704   1.411       .  A
C701        C702   1.398       .  A
C701        F708   1.357   1_556  S
C702        C703   1.408       .  A
C702        F707   1.357       .  S
C703        C704   1.417       .  A
C704        F705   1.358       .  S
C709        C710   1.401       .  A
C709        C714   1.398       .  A
C709        F716   1.358       .  S
C710        C711   1.402       .  A
C711        C712   1.390       .  A
C711        F718   1.358       .  S
C712        C713   1.406       .  A
C712        F717   1.358       .  S
C713        C714   1.408       .  A
C714        F715   1.358       .  S
C719        C720   1.405       .  A
C719        C724   1.405       .  A
C719        F726   1.357       .  S
C720        C721   1.411       .  A
C721        C722   1.401       .  A
C721        F728   1.353   1_556  S
C722        C723   1.405       .  A
C722        F727   1.358       .  S
C723        C724   1.410       .  A
C724        F725   1.358       .  S
C729        C730   1.403       .  A
C729        C734   1.407       .  A
C729        F736   1.356       .  S
C730        C731   1.404       .  A
C731        C732   1.399       .  A
C731        F738   1.357       .  S
C732        C733   1.409       .  A
C732        F737   1.357       .  S
C733        C734   1.415       .  A
C734        F735   1.358       .  S
C739        C740   1.407       .  A
C739        C744   1.396       .  A
C739        F746   1.357       .  S
C740        C741   1.411       .  A
C741        C742   1.395       .  A
C741        F748   1.358       .  S
C742        C743   1.398       .  A
C742        F747   1.358       .  S
C743        C744   1.402       .  A
C744        F745   1.357       .  S
N749        C753   1.358       .  A
N749        C937   1.352       .  A
N749        C917   1.442   1_556  S
C750        N936   1.352       .  A
C750        C751   1.379       .  A
C750        C930   1.463       .  S
C751        C752   1.367       .  A
C751        H754   1.082       .  S
C752        C940   1.381       .  A
C752        H755   1.082       .  S
C753        C939   1.381       .  A
C753        C978   1.474       .  S
N756        C760   1.356       .  A
N756        C757   1.367       .  A
N756       C1094   1.448   1_554  S
C757        C758   1.388       .  A
C758        C759   1.359       .  A
C759        C760   1.375       .  A
C759        H762   1.083       .  S
C760        C897   1.461       .  S
N763        C767   1.356       .  A
N763        C764   1.362       .  A
N763        C887   1.447   1_554  S
C764        C765   1.385       .  A
C764        C792   1.484       .  S
C765        C766   1.361       .  A
C765       H1142   1.083   1_545  S
C766        C767   1.378       .  A
C766        H769   1.082       .  S
C767        C877   1.468       .  S
H768       C1139   1.083       .  S
N770        C775   1.349       .  A
N770        C774   1.353       .  A
N770        H802   1.038       .  S
N771        C778   1.352   1_554  A
N771       C1153   1.350       .  A
N772        C777   1.355       .  A
N772        C776   1.359       .  A
N772        H803   1.041   1_554  S
N773        C780   1.352       .  A
N773        C968   1.353       .  A
C774        C782   1.387       .  A
C774        C790   1.413   1_655  A
C775        C791   1.402       .  A
C775        C783   1.382       .  A
C776        C784   1.385       .  A
C776        C793   1.419       .  A
C777        C792   1.423       .  A
C777        C785   1.389       .  A
C778        C977   1.417   1_656  A
C779       N1145   1.350   1_545  A
C779        C793   1.409       .  A
C780        C788   1.385       .  A
C780        C791   1.412       .  A
C781        N960   1.353       .  A
C781        C976   1.386       .  A
C781       C1166   1.409   1_556  A
C782        C783   1.376       .  A
C782        H794   1.076       .  S
C783        H795   1.082       .  S
C784        C785   1.375       .  A
C784        H796   1.082       .  S
C785        H797   1.079       .  S
C786       C1161   1.375   1_556  A
C786        H798   1.083       .  S
C787       C1160   1.375   1_554  A
C787        H799   1.074       .  S
C788        C789   1.374       .  A
C788        H800   1.081       .  S
C789        C968   1.386       .  A
C789        H801   1.083       .  S
C790        C965   1.417   1_455  A
C791        C940   1.474       .  S
C792       C1155   1.409   1_554  A
C793        C808   1.500       .  S
N804        C808   1.361       .  A
N804        C805   1.362       .  A
C805        C806   1.383       .  A
C806        C807   1.376       .  A
C806        H809   1.082       .  S
C807        C808   1.383       .  A
C807        H810   1.082       .  S
N811        N812   1.322       .  A
N811        N817   1.317       .  A
N811       Mn840   2.213       .  S
N812        C819   1.357       .  A
N813        N815   1.312       .  A
N813        N814   1.322       .  A
N813       Mn829   2.212       .  S
N814        C820   1.357       .  A
N815        N816   1.322       .  A
N815       Mn840   2.196       .  S
N816        C820   1.353       .  A
N817        N818   1.315       .  A
N817       Mn829   2.188       .  S
N818        C819   1.349       .  A
C819        C927   1.477       .  S
C820        C920   1.495       .  S
N821        N827   1.316       .  A
N821        N822   1.312       .  A
N821       Mn851   2.181       .  S
N822        C830   1.347       .  A
N823        N824   1.323       .  A
N823        N825   1.314       .  A
N823       Mn829   2.204       .  S
N824        C831   1.353       .  A
N825        N826   1.323       .  A
N825       Mn851   2.223       .  S
N826        C831   1.359       .  A
N827        N828   1.322       .  A
N827       Mn829   2.203       .  S
N828        C830   1.357       .  A
Mn829      Cl853   2.551       .  S
C830        C880   1.475       .  S
C831        C890   1.499       .  S
N832        N833   1.319       .  A
N832        N838   1.317       .  A
N832       Mn840   2.197       .  S
N833        C841   1.353       .  A
N834        N836   1.315       .  A
N834        N835   1.324       .  A
N834       Mn852   2.214       .  S
N835        C842   1.356       .  A
N836        N837   1.321       .  A
N836       Mn840   2.200       .  S
N837        C842   1.353       .  A
N838        N839   1.317       .  A
N838       Mn852   2.194       .  S
N839        C841   1.351       .  A
Mn840      Cl853   2.547       .  S
C841        C900   1.472       .  S
C842        C910   1.488       .  S
N843        N844   1.319       .  A
N843        N849   1.318       .  A
N843       Mn851   2.209       .  S
N844        C854   1.354       .  A
N845        N846   1.326       .  A
N845        N847   1.313       .  A
N845       Mn852   2.214       .  S
N846        C855   1.358       .  A
N847        N848   1.322       .  A
N847       Mn851   2.213       .  S
N848        C855   1.355       .  A
N849        N850   1.320       .  A
N849       Mn852   2.201       .  S
N850        C854   1.352       .  A
Mn851      Cl853   2.538       .  S
Mn852      Cl853   2.554       .  S
C854        C870   1.473       .  S
C855        C860   1.498       .  S
C856        C857   1.406       .  A
C856        C861   1.409       .  A
C857        C858   1.406       .  A
C858        C859   1.401       .  A
C858        F865   1.358       .  S
C859        C860   1.411       .  A
C859        F864   1.358       .  S
C860        C861   1.413       .  A
C861        F862   1.357       .  S
C866        C867   1.405       .  A
C866       C1058   1.393       .  A
C866        F873   1.356       .  S
C867        C868   1.405       .  A
C868       C1056   1.399   1_554  A
C869       C1055   1.399       .  A
C869        C870   1.408       .  A
C869        F874   1.358       .  S
C870        C871   1.403       .  A
C871       C1053   1.393       .  A
C871        F872   1.358       .  S
C876        C877   1.399       .  A
C876        C881   1.390       .  A
C876        F883   1.358       .  S
C877        C878   1.405       .  A
C878        C879   1.397       .  A
C878        F885   1.356       .  S
C879        C880   1.406       .  A
C879        F884   1.358       .  S
C880        C881   1.411       .  A
C881        F882   1.358       .  S
C886       C1074   1.404       .  A
C886        C891   1.411       .  A
C886       F1080   1.357       .  S
C887       C1073   1.404       .  A
C887       C1075   1.407       .  A
C888       C1074   1.407       .  A
C888        C889   1.398       .  A
C888        F895   1.357       .  S
C889        C890   1.408       .  A
C889        F894   1.357       .  S
C890        C891   1.417       .  A
C891        F892   1.358       .  S
F893       C1073   1.357       .  S
C896        C897   1.401       .  A
C896        C901   1.398       .  A
C896        F903   1.358       .  S
C897        C898   1.402       .  A
C898        C899   1.390       .  A
C898        F905   1.358       .  S
C899        C900   1.406       .  A
C899        F904   1.358       .  S
C900        C901   1.408       .  A
C901        F902   1.358       .  S
C906        C907   1.405       .  A
C906        C911   1.405       .  A
C906        F913   1.357       .  S
C907        N943   1.448       .  S
C907        C908   1.411       .  A
C908        C909   1.401       .  A
C908        F915   1.353       .  S
C909        C910   1.405       .  A
C909        F914   1.358       .  S
C910        C911   1.410       .  A
C911        F912   1.358       .  S
C916        C917   1.403       .  A
C916        C921   1.407       .  A
C916        F923   1.356       .  S
C917        C918   1.404       .  A
C918        C919   1.399       .  A
C918        F925   1.357       .  S
C919        C920   1.409       .  A
C919        F924   1.357       .  S
C920        C921   1.415       .  A
C921        F922   1.358       .  S
C926        C927   1.407       .  A
C926        C931   1.396       .  A
C926        F933   1.357       .  S
C927        C928   1.411       .  A
C928        C929   1.395       .  A
C928        F935   1.358       .  S
C929        C930   1.398       .  A
C929        F934   1.358       .  S
C930        C931   1.402       .  A
C931        F932   1.357       .  S
N936        C940   1.358       .  A
N936       C1104   1.442       .  S
C937        C938   1.379       .  A
C937       C1117   1.463       .  S
C938        C939   1.367       .  A
C938        H941   1.082       .  S
C939        H942   1.082       .  S
N943        C947   1.356       .  A
N943        C944   1.367       .  A
C944        C945   1.388       .  A
C945        C946   1.359       .  A
C946        C947   1.375       .  A
C946        H949   1.083       .  S
C947       C1084   1.461       .  S
N950        C954   1.356       .  A
N950        C951   1.362       .  A
N950       C1074   1.447       .  S
C951        C952   1.385       .  A
C951        C979   1.484       .  S
C952        C953   1.361       .  A
C952       H1329   1.083   1_545  S
C953        C954   1.378       .  A
C953        H956   1.082       .  S
C954       C1064   1.468       .  S
H955       C1326   1.083       .  S
N957        C962   1.349   1_556  A
N957        C961   1.353   1_556  A
N957        H989   1.038       .  S
N958        C965   1.352       .  A
N958       C1340   1.350       .  A
N959        C964   1.355       .  A
N959        C963   1.359       .  A
N959        H990   1.041       .  S
N960        C967   1.352       .  A
C961        C969   1.387       .  A
C961        C977   1.413   1_655  A
C962        C978   1.402   1_554  A
C962        C970   1.382       .  A
C963        C971   1.385       .  A
C963        C980   1.419       .  A
C964        C979   1.423       .  A
C964        C972   1.389       .  A
C966       N1332   1.350   1_545  A
C966        C980   1.409       .  A
C967        C975   1.385       .  A
C967        C978   1.412       .  A
C968       C1353   1.409       .  A
C969        C970   1.376       .  A
C969        H981   1.076       .  S
C970        H982   1.082       .  S
C971        C972   1.375       .  A
C971        H983   1.082       .  S
C972        H984   1.079       .  S
C973       C1348   1.375       .  A
C973        H985   1.083       .  S
C974       C1347   1.375       .  A
C974        H986   1.074       .  S
C975        C976   1.374       .  A
C975        H987   1.081       .  S
C976        H988   1.083       .  S
C979       C1342   1.409       .  A
C980        C995   1.500       .  S
N991        C995   1.361       .  A
N991        C992   1.362       .  A
C992        C993   1.383       .  A
C993        C994   1.376       .  A
C993        H996   1.082       .  S
C994        C995   1.383       .  A
C994        H997   1.082       .  S
N998        N999   1.322       .  A
N998       N1004   1.317       .  A
N998      Mn1027   2.213       .  S
N999       C1006   1.357       .  A
N1000      N1002   1.312       .  A
N1000      N1001   1.322       .  A
N1000     Mn1016   2.212       .  S
N1001      C1007   1.357       .  A
N1002      N1003   1.322       .  A
N1002     Mn1027   2.196       .  S
N1003      C1007   1.353       .  A
N1004      N1005   1.315       .  A
N1004     Mn1016   2.188       .  S
N1005      C1006   1.349       .  A
C1006      C1114   1.477       .  S
C1007      C1107   1.495       .  S
N1008      N1014   1.316       .  A
N1008      N1009   1.312       .  A
N1008     Mn1038   2.181       .  S
N1009      C1017   1.347       .  A
N1010      N1011   1.323       .  A
N1010      N1012   1.314       .  A
N1010     Mn1016   2.204       .  S
N1011      C1018   1.353       .  A
N1012      N1013   1.323       .  A
N1012     Mn1038   2.223       .  S
N1013      C1018   1.359       .  A
N1014      N1015   1.322       .  A
N1014     Mn1016   2.203       .  S
N1015      C1017   1.357       .  A
Mn1016    Cl1040   2.551       .  S
C1017      C1067   1.475       .  S
C1018      C1077   1.499       .  S
N1019      N1020   1.319       .  A
N1019      N1025   1.317       .  A
N1019     Mn1027   2.197       .  S
N1020      C1028   1.353       .  A
N1021      N1023   1.315       .  A
N1021      N1022   1.324       .  A
N1021     Mn1039   2.214       .  S
N1022      C1029   1.356       .  A
N1023      N1024   1.321       .  A
N1023     Mn1027   2.200       .  S
N1024      C1029   1.353       .  A
N1025      N1026   1.317       .  A
N1025     Mn1039   2.194       .  S
N1026      C1028   1.351       .  A
Mn1027    Cl1040   2.547       .  S
C1028      C1087   1.472       .  S
C1029      C1097   1.488       .  S
N1030      N1031   1.319       .  A
N1030      N1036   1.318       .  A
N1030     Mn1038   2.209       .  S
N1031      C1041   1.354       .  A
N1032      N1033   1.326       .  A
N1032      N1034   1.313       .  A
N1032     Mn1039   2.214       .  S
N1033      C1042   1.358       .  A
N1034      N1035   1.322       .  A
N1034     Mn1038   2.213       .  S
N1035      C1042   1.355       .  A
N1036      N1037   1.320       .  A
N1036     Mn1039   2.201       .  S
N1037      C1041   1.352       .  A
Mn1038    Cl1040   2.538       .  S
Mn1039    Cl1040   2.554       .  S
C1041      C1057   1.473       .  S
C1042      C1047   1.498       .  S
C1043      C1044   1.406       .  A
C1043      C1048   1.409       .  A
C1044      C1045   1.406       .  A
C1045      C1046   1.401       .  A
C1045      F1052   1.358       .  S
C1046      C1047   1.411       .  A
C1046      F1051   1.358       .  S
C1047      C1048   1.413       .  A
C1048      F1049   1.357       .  S
C1053      C1054   1.405       .  A
C1053      F1060   1.356       .  S
C1054      C1055   1.405       .  A
C1056      C1057   1.408       .  A
C1056      F1061   1.358       .  S
C1057      C1058   1.403   1_556  A
C1058      F1059   1.358       .  S
C1063      C1064   1.399       .  A
C1063      C1068   1.390       .  A
C1063      F1070   1.358       .  S
C1064      C1065   1.405       .  A
C1065      C1066   1.397       .  A
C1065      F1072   1.356       .  S
C1066      C1067   1.406       .  A
C1066      F1071   1.358       .  S
C1067      C1068   1.411       .  A
C1068      F1069   1.358       .  S
C1073      C1078   1.411       .  A
C1075      C1076   1.398       .  A
C1075      F1082   1.357   1_556  S
C1076      C1077   1.408       .  A
C1076      F1081   1.357       .  S
C1077      C1078   1.417       .  A
C1078      F1079   1.358       .  S
C1083      C1084   1.401       .  A
C1083      C1088   1.398       .  A
C1083      F1090   1.358       .  S
C1084      C1085   1.402       .  A
C1085      C1086   1.390       .  A
C1085      F1092   1.358       .  S
C1086      C1087   1.406       .  A
C1086      F1091   1.358       .  S
C1087      C1088   1.408       .  A
C1088      F1089   1.358       .  S
C1093      C1094   1.405       .  A
C1093      C1098   1.405       .  A
C1093      F1100   1.357       .  S
C1094      C1095   1.411       .  A
C1095      C1096   1.401       .  A
C1095      F1102   1.353   1_556  S
C1096      C1097   1.405       .  A
C1096      F1101   1.358       .  S
C1097      C1098   1.410       .  A
C1098      F1099   1.358       .  S
C1103      C1104   1.403       .  A
C1103      C1108   1.407       .  A
C1103      F1110   1.356       .  S
C1104      C1105   1.404       .  A
C1105      C1106   1.399       .  A
C1105      F1112   1.357       .  S
C1106      C1107   1.409       .  A
C1106      F1111   1.357       .  S
C1107      C1108   1.415       .  A
C1108      F1109   1.358       .  S
C1113      C1114   1.407       .  A
C1113      C1118   1.396       .  A
C1113      F1120   1.357       .  S
C1114      C1115   1.411       .  A
C1115      C1116   1.395       .  A
C1115      F1122   1.358       .  S
C1116      C1117   1.398       .  A
C1116      F1121   1.358       .  S
C1117      C1118   1.402       .  A
C1118      F1119   1.357       .  S
N1123      C1127   1.358       .  A
N1123      C1311   1.352       .  A
N1123      C1291   1.442   1_556  S
C1124      N1310   1.352       .  A
C1124      C1125   1.379       .  A
C1124      C1304   1.463       .  S
C1125      C1126   1.367       .  A
C1125      H1128   1.082       .  S
C1126      C1314   1.381       .  A
C1126      H1129   1.082       .  S
C1127      C1313   1.381       .  A
C1127      C1352   1.474       .  S
N1130      C1134   1.356       .  A
N1130      C1131   1.367       .  A
N1130      C1468   1.448   1_554  S
C1131      C1132   1.388       .  A
C1132      C1133   1.359       .  A
C1133      C1134   1.375       .  A
C1133      H1136   1.083       .  S
C1134      C1271   1.461       .  S
N1137      C1141   1.356       .  A
N1137      C1138   1.362       .  A
N1137      C1261   1.447   1_554  S
C1138      C1139   1.385       .  A
C1138      C1166   1.484       .  S
C1139      C1140   1.361       .  A
C1140      C1141   1.378       .  A
C1140      H1143   1.082       .  S
C1141      C1251   1.468       .  S
N1144      C1149   1.349       .  A
N1144      C1148   1.353       .  A
N1144      H1176   1.038       .  S
N1145      C1152   1.352   1_554  A
N1146      C1151   1.355       .  A
N1146      C1150   1.359       .  A
N1146      H1177   1.041   1_554  S
N1147      C1154   1.352       .  A
N1147      C1342   1.353   1_565  A
C1148      C1156   1.387       .  A
C1148      C1164   1.413   1_655  A
C1149      C1165   1.402       .  A
C1149      C1157   1.382       .  A
C1150      C1158   1.385       .  A
C1150      C1167   1.419       .  A
C1151      C1166   1.423       .  A
C1151      C1159   1.389       .  A
C1152      C1351   1.417   1_656  A
C1153      C1167   1.409       .  A
C1154      C1162   1.385       .  A
C1154      C1165   1.412       .  A
C1155      N1334   1.353   1_545  A
C1155      C1350   1.386   1_545  A
C1156      C1157   1.376       .  A
C1156      H1168   1.076       .  S
C1157      H1169   1.082       .  S
C1158      C1159   1.375       .  A
C1158      H1170   1.082       .  S
C1159      H1171   1.079       .  S
C1160      H1172   1.083   1_545  S
C1161      H1173   1.074       .  S
C1162      C1163   1.374       .  A
C1162      H1174   1.081       .  S
C1163      C1342   1.386   1_565  A
C1163      H1175   1.083       .  S
C1164      C1339   1.417   1_455  A
C1165      C1314   1.474       .  S
C1167      C1182   1.500       .  S
N1178      C1182   1.361       .  A
N1178      C1179   1.362       .  A
C1179      C1180   1.383       .  A
C1180      C1181   1.376       .  A
C1180      H1183   1.082       .  S
C1181      C1182   1.383       .  A
C1181      H1184   1.082       .  S
N1185      N1186   1.322       .  A
N1185      N1191   1.317       .  A
N1185     Mn1214   2.213       .  S
N1186      C1193   1.357       .  A
N1187      N1189   1.312       .  A
N1187      N1188   1.322       .  A
N1187     Mn1203   2.212       .  S
N1188      C1194   1.357       .  A
N1189      N1190   1.322       .  A
N1189     Mn1214   2.196       .  S
N1190      C1194   1.353       .  A
N1191      N1192   1.315       .  A
N1191     Mn1203   2.188       .  S
N1192      C1193   1.349       .  A
C1193      C1301   1.477       .  S
C1194      C1294   1.495       .  S
N1195      N1201   1.316       .  A
N1195      N1196   1.312       .  A
N1195     Mn1225   2.181       .  S
N1196      C1204   1.347       .  A
N1197      N1198   1.323       .  A
N1197      N1199   1.314       .  A
N1197     Mn1203   2.204       .  S
N1198      C1205   1.353       .  A
N1199      N1200   1.323       .  A
N1199     Mn1225   2.223       .  S
N1200      C1205   1.359       .  A
N1201      N1202   1.322       .  A
N1201     Mn1203   2.203       .  S
N1202      C1204   1.357       .  A
Mn1203    Cl1227   2.551       .  S
C1204      C1254   1.475       .  S
C1205      C1264   1.499       .  S
N1206      N1207   1.319       .  A
N1206      N1212   1.317       .  A
N1206     Mn1214   2.197       .  S
N1207      C1215   1.353       .  A
N1208      N1210   1.315       .  A
N1208      N1209   1.324       .  A
N1208     Mn1226   2.214       .  S
N1209      C1216   1.356       .  A
N1210      N1211   1.321       .  A
N1210     Mn1214   2.200       .  S
N1211      C1216   1.353       .  A
N1212      N1213   1.317       .  A
N1212     Mn1226   2.194       .  S
N1213      C1215   1.351       .  A
Mn1214    Cl1227   2.547       .  S
C1215      C1274   1.472       .  S
C1216      C1284   1.488       .  S
N1217      N1218   1.319       .  A
N1217      N1223   1.318       .  A
N1217     Mn1225   2.209       .  S
N1218      C1228   1.354       .  A
N1219      N1220   1.326       .  A
N1219      N1221   1.313       .  A
N1219     Mn1226   2.214       .  S
N1220      C1229   1.358       .  A
N1221      N1222   1.322       .  A
N1221     Mn1225   2.213       .  S
N1222      C1229   1.355       .  A
N1223      N1224   1.320       .  A
N1223     Mn1226   2.201       .  S
N1224      C1228   1.352       .  A
Mn1225    Cl1227   2.538       .  S
Mn1226    Cl1227   2.554       .  S
C1228      C1244   1.473       .  S
C1229      C1234   1.498       .  S
C1230      C1231   1.406       .  A
C1230      C1235   1.409       .  A
C1231      C1232   1.406       .  A
C1232      C1233   1.401       .  A
C1232      F1239   1.358       .  S
C1233      C1234   1.411       .  A
C1233      F1238   1.358       .  S
C1234      C1235   1.413       .  A
C1235      F1236   1.357       .  S
C1240      C1241   1.405       .  A
C1240      C1432   1.393       .  A
C1240      F1247   1.356       .  S
C1241      C1242   1.405       .  A
C1242      C1430   1.399   1_554  A
C1243      C1429   1.399       .  A
C1243      C1244   1.408       .  A
C1243      F1248   1.358       .  S
C1244      C1245   1.403       .  A
C1245      C1427   1.393       .  A
C1245      F1246   1.358       .  S
C1250      C1251   1.399       .  A
C1250      C1255   1.390       .  A
C1250      F1257   1.358       .  S
C1251      C1252   1.405       .  A
C1252      C1253   1.397       .  A
C1252      F1259   1.356       .  S
C1253      C1254   1.406       .  A
C1253      F1258   1.358       .  S
C1254      C1255   1.411       .  A
C1255      F1256   1.358       .  S
C1260      C1448   1.404       .  A
C1260      C1265   1.411       .  A
C1260      F1454   1.357       .  S
C1261      C1447   1.404       .  A
C1261      C1449   1.407       .  A
C1262      C1448   1.407       .  A
C1262      C1263   1.398       .  A
C1262      F1269   1.357       .  S
C1263      C1264   1.408       .  A
C1263      F1268   1.357       .  S
C1264      C1265   1.417       .  A
C1265      F1266   1.358       .  S
F1267      C1447   1.357       .  S
C1270      C1271   1.401       .  A
C1270      C1275   1.398       .  A
C1270      F1277   1.358       .  S
C1271      C1272   1.402       .  A
C1272      C1273   1.390       .  A
C1272      F1279   1.358       .  S
C1273      C1274   1.406       .  A
C1273      F1278   1.358       .  S
C1274      C1275   1.408       .  A
C1275      F1276   1.358       .  S
C1280      C1281   1.405       .  A
C1280      C1285   1.405       .  A
C1280      F1287   1.357       .  S
C1281      N1317   1.448       .  S
C1281      C1282   1.411       .  A
C1282      C1283   1.401       .  A
C1282      F1289   1.353       .  S
C1283      C1284   1.405       .  A
C1283      F1288   1.358       .  S
C1284      C1285   1.410       .  A
C1285      F1286   1.358       .  S
C1290      C1291   1.403       .  A
C1290      C1295   1.407       .  A
C1290      F1297   1.356       .  S
C1291      C1292   1.404       .  A
C1292      C1293   1.399       .  A
C1292      F1299   1.357       .  S
C1293      C1294   1.409       .  A
C1293      F1298   1.357       .  S
C1294      C1295   1.415       .  A
C1295      F1296   1.358       .  S
C1300      C1301   1.407       .  A
C1300      C1305   1.396       .  A
C1300      F1307   1.357       .  S
C1301      C1302   1.411       .  A
C1302      C1303   1.395       .  A
C1302      F1309   1.358       .  S
C1303      C1304   1.398       .  A
C1303      F1308   1.358       .  S
C1304      C1305   1.402       .  A
C1305      F1306   1.357       .  S
N1310      C1314   1.358       .  A
N1310      C1478   1.442       .  S
C1311      C1312   1.379       .  A
C1311      C1491   1.463       .  S
C1312      C1313   1.367       .  A
C1312      H1315   1.082       .  S
C1313      H1316   1.082       .  S
N1317      C1321   1.356       .  A
N1317      C1318   1.367       .  A
C1318      C1319   1.388       .  A
C1319      C1320   1.359       .  A
C1320      C1321   1.375       .  A
C1320      H1323   1.083       .  S
C1321      C1458   1.461       .  S
N1324      C1328   1.356       .  A
N1324      C1325   1.362       .  A
N1324      C1448   1.447       .  S
C1325      C1326   1.385       .  A
C1325      C1353   1.484       .  S
C1326      C1327   1.361       .  A
C1327      C1328   1.378       .  A
C1327      H1330   1.082       .  S
C1328      C1438   1.468       .  S
N1331      C1336   1.349   1_556  A
N1331      C1335   1.353   1_556  A
N1331      H1363   1.038       .  S
N1332      C1339   1.352       .  A
N1333      C1338   1.355       .  A
N1333      C1337   1.359       .  A
N1333      H1364   1.041       .  S
N1334      C1341   1.352       .  A
C1335      C1343   1.387       .  A
C1335      C1351   1.413   1_655  A
C1336      C1352   1.402   1_554  A
C1336      C1344   1.382       .  A
C1337      C1345   1.385       .  A
C1337      C1354   1.419       .  A
C1338      C1353   1.423       .  A
C1338      C1346   1.389       .  A
C1340      C1354   1.409       .  A
C1341      C1349   1.385       .  A
C1341      C1352   1.412       .  A
C1343      C1344   1.376       .  A
C1343      H1355   1.076       .  S
C1344      H1356   1.082       .  S
C1345      C1346   1.375       .  A
C1345      H1357   1.082       .  S
C1346      H1358   1.079       .  S
C1347      H1359   1.083   1_545  S
C1348      H1360   1.074       .  S
C1349      C1350   1.374       .  A
C1349      H1361   1.081       .  S
C1350      H1362   1.083       .  S
C1354      C1369   1.500       .  S
N1365      C1369   1.361       .  A
N1365      C1366   1.362       .  A
C1366      C1367   1.383       .  A
C1367      C1368   1.376       .  A
C1367      H1370   1.082       .  S
C1368      C1369   1.383       .  A
C1368      H1371   1.082       .  S
N1372      N1373   1.322       .  A
N1372      N1378   1.317       .  A
N1372     Mn1401   2.213       .  S
N1373      C1380   1.357       .  A
N1374      N1376   1.312       .  A
N1374      N1375   1.322       .  A
N1374     Mn1390   2.212       .  S
N1375      C1381   1.357       .  A
N1376      N1377   1.322       .  A
N1376     Mn1401   2.196       .  S
N1377      C1381   1.353       .  A
N1378      N1379   1.315       .  A
N1378     Mn1390   2.188       .  S
N1379      C1380   1.349       .  A
C1380      C1488   1.477       .  S
C1381      C1481   1.495       .  S
N1382      N1388   1.316       .  A
N1382      N1383   1.312       .  A
N1382     Mn1412   2.181       .  S
N1383      C1391   1.347       .  A
N1384      N1385   1.323       .  A
N1384      N1386   1.314       .  A
N1384     Mn1390   2.204       .  S
N1385      C1392   1.353       .  A
N1386      N1387   1.323       .  A
N1386     Mn1412   2.223       .  S
N1387      C1392   1.359       .  A
N1388      N1389   1.322       .  A
N1388     Mn1390   2.203       .  S
N1389      C1391   1.357       .  A
Mn1390    Cl1414   2.551       .  S
C1391      C1441   1.475       .  S
C1392      C1451   1.499       .  S
N1393      N1394   1.319       .  A
N1393      N1399   1.317       .  A
N1393     Mn1401   2.197       .  S
N1394      C1402   1.353       .  A
N1395      N1397   1.315       .  A
N1395      N1396   1.324       .  A
N1395     Mn1413   2.214       .  S
N1396      C1403   1.356       .  A
N1397      N1398   1.321       .  A
N1397     Mn1401   2.200       .  S
N1398      C1403   1.353       .  A
N1399      N1400   1.317       .  A
N1399     Mn1413   2.194       .  S
N1400      C1402   1.351       .  A
Mn1401    Cl1414   2.547       .  S
C1402      C1461   1.472       .  S
C1403      C1471   1.488       .  S
N1404      N1405   1.319       .  A
N1404      N1410   1.318       .  A
N1404     Mn1412   2.209       .  S
N1405      C1415   1.354       .  A
N1406      N1407   1.326       .  A
N1406      N1408   1.313       .  A
N1406     Mn1413   2.214       .  S
N1407      C1416   1.358       .  A
N1408      N1409   1.322       .  A
N1408     Mn1412   2.213       .  S
N1409      C1416   1.355       .  A
N1410      N1411   1.320       .  A
N1410     Mn1413   2.201       .  S
N1411      C1415   1.352       .  A
Mn1412    Cl1414   2.538       .  S
Mn1413    Cl1414   2.554       .  S
C1415      C1431   1.473       .  S
C1416      C1421   1.498       .  S
C1417      C1418   1.406       .  A
C1417      C1422   1.409       .  A
C1418      C1419   1.406       .  A
C1419      C1420   1.401       .  A
C1419      F1426   1.358       .  S
C1420      C1421   1.411       .  A
C1420      F1425   1.358       .  S
C1421      C1422   1.413       .  A
C1422      F1423   1.357       .  S
C1427      C1428   1.405       .  A
C1427      F1434   1.356       .  S
C1428      C1429   1.405       .  A
C1430      C1431   1.408       .  A
C1430      F1435   1.358       .  S
C1431      C1432   1.403   1_556  A
C1432      F1433   1.358       .  S
C1437      C1438   1.399       .  A
C1437      C1442   1.390       .  A
C1437      F1444   1.358       .  S
C1438      C1439   1.405       .  A
C1439      C1440   1.397       .  A
C1439      F1446   1.356       .  S
C1440      C1441   1.406       .  A
C1440      F1445   1.358       .  S
C1441      C1442   1.411       .  A
C1442      F1443   1.358       .  S
C1447      C1452   1.411       .  A
C1449      C1450   1.398       .  A
C1449      F1456   1.357   1_556  S
C1450      C1451   1.408       .  A
C1450      F1455   1.357       .  S
C1451      C1452   1.417       .  A
C1452      F1453   1.358       .  S
C1457      C1458   1.401       .  A
C1457      C1462   1.398       .  A
C1457      F1464   1.358       .  S
C1458      C1459   1.402       .  A
C1459      C1460   1.390       .  A
C1459      F1466   1.358       .  S
C1460      C1461   1.406       .  A
C1460      F1465   1.358       .  S
C1461      C1462   1.408       .  A
C1462      F1463   1.358       .  S
C1467      C1468   1.405       .  A
C1467      C1472   1.405       .  A
C1467      F1474   1.357       .  S
C1468      C1469   1.411       .  A
C1469      C1470   1.401       .  A
C1469      F1476   1.353   1_556  S
C1470      C1471   1.405       .  A
C1470      F1475   1.358       .  S
C1471      C1472   1.410       .  A
C1472      F1473   1.358       .  S
C1477      C1478   1.403       .  A
C1477      C1482   1.407       .  A
C1477      F1484   1.356       .  S
C1478      C1479   1.404       .  A
C1479      C1480   1.399       .  A
C1479      F1486   1.357       .  S
C1480      C1481   1.409       .  A
C1480      F1485   1.357       .  S
C1481      C1482   1.415       .  A
C1482      F1483   1.358       .  S
C1487      C1488   1.407       .  A
C1487      C1492   1.396       .  A
C1487      F1494   1.357       .  S
C1488      C1489   1.411       .  A
C1489      C1490   1.395       .  A
C1489      F1496   1.358       .  S
C1490      C1491   1.398       .  A
C1490      F1495   1.358       .  S
C1491      C1492   1.402       .  A
C1492      F1493   1.357       .  S
