geometry optimzed in LAMMPS
_audit_creation_date              2020-11-30 
_audit_creation_method            'lammps2cif' 
_symmetry_space_group_name_H-M    'P1' 
_symmetry_Int_Tables_number       1 
_symmetry_cell_setting            triclinic 
loop_ 
_symmetry_equiv_pos_as_xyz 
  x,y,z 
_cell_length_a                    40.78086381 
_cell_length_b                    40.96209864873816 
_cell_length_c                    42.692827853235414 
_cell_angle_alpha                 90.07145747461115 
_cell_angle_beta                  90.12497564482067 
_cell_angle_gamma                 121.16735330475804 
loop_ 
_atom_site_label 
_atom_site_type_symbol 
_atom_site_fract_x 
_atom_site_fract_y 
_atom_site_fract_z 
_atom_site_charge 
In1        In  0.66656206  0.56306808  0.85275463     1.36900
C2          C  0.73049561  0.56097143  0.85066239     0.77300
O3          O  0.65618300  0.54127497  0.80384554    -0.61200
O4          O  0.65882724  0.59371739  0.81193014    -0.52100
C5          C  0.59760446  0.50461452  0.86542759     0.69900
O6          O  0.62749209  0.50282513  0.86673720    -0.46900
C7          C  0.68541621  0.61164566  0.90019578     0.74600
O8          O  0.69941562  0.53410094  0.86130836    -0.58800
O9          O  0.68562957  0.62139447  0.87214353    -0.48900
O10         O  0.72851818  0.58888989  0.84075487    -0.55200
C11         C  0.65458092  0.56868946  0.79227955     0.84800
O12         O  0.60329656  0.53720053  0.85879006    -0.57100
O13         O  0.67370915  0.57685934  0.90402868    -0.60400
In14       In  0.93990508  0.56589870  0.85036181     1.36900
C15         C  0.87408263  0.56414194  0.84764624     0.77300
O16         O  0.93866453  0.58007885  0.90054106    -0.61200
O17         O  0.98583262  0.62051635  0.87318064    -0.52100
C18         C  0.95012544  0.50885337  0.86539364     0.69900
O19         O  0.91793247  0.50614333  0.86492525    -0.46900
C20         C  0.95434326  0.57323561  0.78900148     0.74600
O21         O  0.87619390  0.53564251  0.85567814    -0.58800
O22         O  0.97321682  0.60058576  0.80787704    -0.48900
O23         O  0.90579255  0.59320312  0.84074193    -0.55200
C24         C  0.96872101  0.61242467  0.89924900     0.84800
O25         O  0.97790902  0.54159030  0.85844164    -0.57100
O26         O  0.92958665  0.54268311  0.80191294    -0.60400
In27       In  0.27675295  0.96493478  0.97610033     1.36900
C28         C  0.30363438  0.94363575  0.02376668     0.77300
O29         O  0.22002786  0.92402529  0.99761656    -0.61200
O30         O  0.22894219  0.91415401  0.95065991    -0.52100
C31         C  0.27095104  0.02702973  0.97888115     0.69900
O32         O  0.29426194  0.02285032  0.99511298    -0.46900
C33         C  0.32478658  0.98467010  0.92803452     0.74600
O34         O  0.29062866  0.96536001  0.02719656    -0.58800
O35         O  0.29047375  0.95765727  0.92640177    -0.48900
O36         O  0.30392778  0.93359886  0.99587003    -0.55200
C37         C  0.20686728  0.90258835  0.97397769     0.84800
O38         O  0.24978695  0.99870006  0.96170486    -0.57100
O39         O  0.33498112  0.00043442  0.95453124    -0.60400
In40       In  0.99916549  0.68852950  0.97253896     1.36900
C41         C  0.01568936  0.65458942  0.01770672     0.77300
O42         O  0.96277535  0.63039876  0.95118139    -0.61200
O43         O  0.00909223  0.67266879  0.92438836    -0.52100
C44         C  0.94026579  0.70050296  0.97456957     0.69900
O45         O  0.95305205  0.69262947  0.99842147    -0.46900
C46         C  0.06181955  0.75852477  0.97117613     0.74600
O47         O  0.98635357  0.65735513  0.01867002    -0.58800
O48         O  0.04858162  0.73731302  0.94748761    -0.48900
O49         O  0.03564729  0.66794428  0.99335448    -0.55200
C50         C  0.98097197  0.63900828  0.92572003     0.84800
O51         O  0.95833128  0.70302148  0.94997561    -0.57100
O52         O  0.04216267  0.74425060  0.99555760    -0.60400
In53       In  0.33222353  0.89870163  0.09785627     1.36900
C54         C  0.26719175  0.83136194  0.09988380     0.77300
O55         O  0.34464341  0.88619304  0.14546660    -0.61200
O56         O  0.33837419  0.93417024  0.14085607    -0.52100
C57         C  0.40106425  0.91117481  0.08422240     0.69900
O58         O  0.37059495  0.87923512  0.08088274    -0.46900
C59         C  0.31580701  0.92963097  0.05023168     0.74600
O60         O  0.29842382  0.83551214  0.09063947    -0.58800
O61         O  0.31658276  0.94008729  0.07821902    -0.48900
O62         O  0.26945991  0.86197358  0.10836166    -0.55200
C63         C  0.34501313  0.91372619  0.15889865     0.84800
O64         O  0.39603458  0.93775200  0.09297203    -0.57100
O65         O  0.32493287  0.90487050  0.04670574    -0.60400
In66       In  0.05644582  0.62129973  0.09127510     1.36900
C67         C  0.12190214  0.68789259  0.09542858     0.77300
O68         O  0.05573051  0.63504615  0.04094918    -0.61200
O69         O  0.01197045  0.63185546  0.07021164    -0.52100
C70         C  0.04552165  0.55307768  0.07820460     0.69900
O71         O  0.07772241  0.58352752  0.07643601    -0.46900
C72         C  0.04167651  0.60988170  0.15212338     0.74600
O73         O  0.12013938  0.65785900  0.08577754    -0.58800
O74         O  0.01979467  0.61415104  0.13370852    -0.48900
O75         O  0.08998249  0.68342720  0.10303596    -0.55200
C76         C  0.02744806  0.63934299  0.04348461     0.84800
O77         O  0.01811728  0.55784762  0.08477573    -0.57100
O78         O  0.07032010  0.61196753  0.13910239    -0.60400
In79       In  0.39289610  0.29731938  0.84768903     1.36900
C80         C  0.39461885  0.23331077  0.84483561     0.77300
O81         O  0.38005427  0.29030572  0.89873054    -0.61200
O82         O  0.33506390  0.28026517  0.86750893    -0.52100
C83         C  0.45116240  0.36562187  0.86175684     0.69900
O84         O  0.45202007  0.33545574  0.86482340    -0.46900
C85         C  0.38729423  0.30877281  0.78721121     0.74600
O86         O  0.42296850  0.26472560  0.85354327    -0.58800
O87         O  0.36039405  0.30102513  0.80609202    -0.48900
O88         O  0.36590537  0.23524768  0.83705160    -0.55200
C89         C  0.34529368  0.27958285  0.89529537     0.84800
O90         O  0.41924779  0.36054041  0.85290416    -0.57100
O91         O  0.41650234  0.31119505  0.79967650    -0.60400
In92       In  0.39663618  0.02788537  0.85201346     1.36900
C93         C  0.39875009  0.09379616  0.84842855     0.77300
O94         O  0.41925224  0.04025504  0.80358827    -0.61200
O95         O  0.36480371  0.99024660  0.81010497    -0.52100
C96         C  0.45331258  0.01641550  0.86593791     0.69900
O97         O  0.45616143  0.04851251  0.86814928    -0.46900
C98         C  0.35047369  0.99818346  0.90098497     0.74600
O99         O  0.42723150  0.09149549  0.85651358    -0.58800
O100        O  0.34000370  0.98480259  0.87366095    -0.48900
O101        O  0.36917379  0.06202929  0.84214602    -0.55200
C102        C  0.39126779  0.01131742  0.79119621     0.84800
O103        O  0.42058142  0.98965368  0.85758897    -0.57100
O104        O  0.38455227  0.02550601  0.90320750    -0.60400
In105      In  0.27104877  0.23410484  0.96942718     1.36900
C106        C  0.29871552  0.28244071  0.01715343     0.77300
O107        O  0.33007056  0.26915587  0.94951413    -0.61200
O108        O  0.28298063  0.24571768  0.91797874    -0.52100
C109        C  0.26653458  0.16657373  0.97257595     0.69900
O110        O  0.28786962  0.19450802  0.99000162    -0.46900
C111        C  0.20238192  0.22695616  0.96763552     0.74600
O112        O  0.29226380  0.24893355  0.01913646    -0.58800
O113        O  0.22820531  0.24540299  0.94778485    -0.48900
O114        O  0.29151806  0.29120310  0.99082683    -0.55200
C115        C  0.31873915  0.26509650  0.92155959     0.84800
O116        O  0.24679315  0.17311654  0.95374352    -0.57100
O117        O  0.21135340  0.21089985  0.98830600    -0.60400
In118      In  0.72688575  0.68864205  0.97356708     1.36900
C119        C  0.69916920  0.63879014  0.92630540     0.77300
O120        O  0.78800498  0.71532506  0.95672551    -0.61200
O121        O  0.77178517  0.68066234  0.99691714    -0.52100
C122        C  0.73010947  0.75568977  0.97109035     0.69900
O123        O  0.71479179  0.73046999  0.95017345    -0.46900
C124        C  0.67664055  0.65804899  0.02005606     0.74600
O125        O  0.71364021  0.67406541  0.92245490    -0.58800
O126        O  0.71135885  0.66817798  0.02331910    -0.48900
O127        O  0.69858215  0.62882898  0.95429470    -0.55200
C128        C  0.79799984  0.70064892  0.97776621     0.84800
O129        O  0.74464544  0.74676172  0.99310516    -0.57100
O130        O  0.66741950  0.66251666  0.99289112    -0.60400
In131      In  0.06151907  0.35892519  0.09330023     1.36900
C132        C  0.12797431  0.36202635  0.09661093     0.77300
O133        O  0.07281475  0.38173665  0.14147300    -0.61200
O134        O  0.02314402  0.32711466  0.13429532    -0.52100
C135        C  0.05063745  0.41555737  0.07967757     0.69900
O136        O  0.08314539  0.41900015  0.08080947    -0.46900
C137        C  0.03334133  0.31098590  0.04551324     0.74600
O138        O  0.12474976  0.38879016  0.08569796    -0.58800
O139        O  0.02078107  0.30094863  0.07299935    -0.48900
O140        O  0.09696682  0.33390345  0.10619658    -0.55200
C141        C  0.04384897  0.35355102  0.15342173     0.84800
O142        O  0.02286131  0.38214959  0.08467434    -0.57100
O143        O  0.05842997  0.34571089  0.04237554    -0.60400
In144      In  0.33189761  0.35716712  0.09112114     1.36900
C145        C  0.26771150  0.35805515  0.09594624     0.77300
O146        O  0.31502510  0.34102342  0.04136902    -0.61200
O147        O  0.32107149  0.30191284  0.06988562    -0.52100
C148        C  0.39996092  0.41538881  0.07595834     0.69900
O149        O  0.36990280  0.41687978  0.07551349    -0.46900
C150        C  0.34417455  0.35344706  0.15192497     0.74600
O151        O  0.29796780  0.38528586  0.08437657    -0.58800
O152        O  0.33462882  0.32546846  0.13373314    -0.48900
O153        O  0.27081165  0.33063789  0.10537265    -0.55200
C154        C  0.31230383  0.30911550  0.04346293     0.84800
O155        O  0.39488932  0.38309145  0.08282027    -0.57100
O156        O  0.34762373  0.38240284  0.13856664    -0.60400
In157      In  0.59651281  0.89468524  0.09761697     1.36900
C158        C  0.59619503  0.82989421  0.09729954     0.77300
O159        O  0.61110398  0.90145464  0.04678160    -0.61200
O160        O  0.65550454  0.93700381  0.07878425    -0.52100
C161        C  0.53959640  0.90610743  0.08393698     0.69900
O162        O  0.53815319  0.87501888  0.07913689    -0.46900
C163        C  0.59835781  0.90463001  0.15942768     0.74600
O164        O  0.56657509  0.83119051  0.09117631    -0.58800
O165        O  0.62439587  0.92923458  0.14181066    -0.48900
O166        O  0.62523500  0.86159299  0.10437461    -0.55200
C167        C  0.64600934  0.92603141  0.05075528     0.84800
O168        O  0.57139545  0.93236827  0.09463081    -0.57100
O169        O  0.57250532  0.87596227  0.14504855    -0.60400
In170      In  0.60084094  0.62663548  0.09334909     1.36900
C171        C  0.59678684  0.68912148  0.09413948     0.77300
O172        O  0.57899055  0.61914325  0.14199006    -0.61200
O173        O  0.63211075  0.62239485  0.13594947    -0.52100
C174        C  0.54339827  0.55732569  0.07988749     0.69900
O175        O  0.54204980  0.58699518  0.07532123    -0.46900
C176        C  0.64940213  0.64420204  0.04608265     0.74600
O177        O  0.56816469  0.65648501  0.08877196    -0.58800
O178        O  0.65877082  0.64265507  0.07401388    -0.48900
O179        O  0.62753175  0.68956065  0.09904189    -0.55200
C180        C  0.60658732  0.61874090  0.15483677     0.84800
O181        O  0.57523493  0.56345403  0.08993426    -0.57100
O182        O  0.61500291  0.63482878  0.04232829    -0.60400
In183      In  0.72185747  0.95912566  0.97669561     1.36900
C184        C  0.69291160  0.97956613  0.92980337     0.77300
O185        O  0.66258967  0.92793254  0.99689664    -0.61200
O186        O  0.70891551  0.96056655  0.02806300    -0.52100
C187        C  0.72829819  0.89709216  0.97439911     0.69900
O188        O  0.70771320  0.90261574  0.95567683    -0.46900
C189        C  0.79116544  0.02305562  0.97817287     0.74600
O190        O  0.70551424  0.95752970  0.92577731    -0.58800
O191        O  0.76542348  0.01537945  0.99804125    -0.48900
O192        O  0.69435388  0.99031937  0.95768868    -0.55200
C193        C  0.67323729  0.93897328  0.02463020     0.84800
O194        O  0.74614370  0.92384849  0.99379256    -0.57100
O195        O  0.78164684  0.99729230  0.95784120    -0.60400
In196      In  0.00020699  0.23643408  0.97126028     1.36900
C197        C  0.98261491  0.26780437  0.92469141     0.77300
O198        O  0.96238148  0.17658879  0.95282862    -0.61200
O199        O  0.94284694  0.19408996  0.99138009    -0.52100
C200        C  0.06125377  0.22869956  0.97050195     0.69900
O201        O  0.05588356  0.24828962  0.95072567    -0.46900
C202        C  0.02098212  0.28438555  0.01919160     0.74600
O203        O  0.00305075  0.25334794  0.92059828    -0.58800
O204        O  0.99685322  0.24928624  0.02193172    -0.48900
O205        O  0.97167732  0.26658369  0.95244636    -0.55200
C206        C  0.93597355  0.16774156  0.97236851     0.84800
O207        O  0.03472079  0.21222800  0.99023564    -0.57100
O208        O  0.03451652  0.29487970  0.99208539    -0.60400
In209      In  0.93950537  0.30097897  0.85274100     1.36900
C210        C  0.87327808  0.23497522  0.85419170     0.77300
O211        O  0.92358248  0.30691678  0.80413621    -0.61200
O212        O  0.97648119  0.30966959  0.80995335    -0.52100
C213        C  0.95156670  0.36953062  0.86689724     0.69900
O214        O  0.91887801  0.33954875  0.86744606    -0.46900
C215        C  0.97038854  0.28287236  0.89911122     0.74600
O216        O  0.87623464  0.26622440  0.86163576    -0.58800
O217        O  0.98072552  0.28429919  0.87102463    -0.48900
O218        O  0.90416682  0.23806233  0.84527017    -0.55200
C219        C  0.95325610  0.31120533  0.79121380     0.84800
O220        O  0.97856910  0.36405943  0.86045875    -0.57100
O221        O  0.94677075  0.29346025  0.90350104    -0.60400
In222      In  0.66234500  0.02560634  0.85762881     1.36900
C223        C  0.72776676  0.09231698  0.85798337     0.77300
O224        O  0.67136848  0.01889304  0.90838626    -0.61200
O225        O  0.67655434  0.98247139  0.87605402    -0.52100
C226        C  0.59451964  0.01687600  0.87062011     0.69900
O227        O  0.62552019  0.04850213  0.87113246    -0.46900
C228        C  0.65364629  0.01214631  0.79588171     0.74600
O229        O  0.69707345  0.08791368  0.86887149    -0.58800
O230        O  0.65566508  0.98947010  0.81475021    -0.48900
O231        O  0.72483098  0.06230059  0.84706024    -0.55200
C232        C  0.67941476  0.99345114  0.90410242     0.84800
O233        O  0.59826484  0.98880172  0.86432416    -0.57100
O234        O  0.65541304  0.04059558  0.80895187    -0.60400
In235      In  0.93665338  0.56582690  0.59239390     1.36900
C236        C  0.87090401  0.56396586  0.59524853     0.77300
O237        O  0.92373166  0.54224477  0.64040588    -0.61200
O238        O  0.97134725  0.59847849  0.63525130    -0.52100
C239        C  0.94938536  0.51018915  0.57867410     0.69900
O240        O  0.91700728  0.50697789  0.57604673    -0.46900
C241        C  0.96443100  0.61107712  0.54315132     0.74600
O242        O  0.87292449  0.53492407  0.58914534    -0.58800
O243        O  0.98045594  0.62122448  0.56973356    -0.48900
O244        O  0.90287031  0.59398575  0.60001972    -0.55200
C245        C  0.95075628  0.57118226  0.65363267     0.84800
O246        O  0.97596845  0.54298063  0.58698753    -0.57100
O247        O  0.93602663  0.57757905  0.54172675    -0.60400
In248      In  0.66458069  0.56484355  0.59655194     1.36900
C249        C  0.73010712  0.56598002  0.59834610     0.77300
O250        O  0.67653019  0.57902283  0.54590279    -0.61200
O251        O  0.67715357  0.62086618  0.57590455    -0.52100
C252        C  0.59566799  0.50745097  0.58089145     0.69900
O253        O  0.62555891  0.50564919  0.57974874    -0.46900
C254        C  0.65344049  0.56789637  0.65767418     0.74600
O255        O  0.69857089  0.53646053  0.59138116    -0.58800
O256        O  0.65995950  0.59497635  0.63949066    -0.48900
O257        O  0.72766191  0.59457349  0.60521610    -0.55200
C258        C  0.68211713  0.61211926  0.54864305     0.84800
O259        O  0.60120329  0.53949554  0.58936585    -0.57100
O260        O  0.65312980  0.54031868  0.64438146    -0.60400
In261      In  0.26979502  0.96124278  0.47393224     1.36900
C262        C  0.30070888  0.94205109  0.42770515     0.77300
O263        O  0.32868887  0.99888171  0.49480209    -0.61200
O264        O  0.28660895  0.95482864  0.52323933    -0.52100
C265        C  0.25860567  0.02029884  0.47193357     0.69900
O266        O  0.27555576  0.01313702  0.45090221    -0.46900
C267        C  0.19960874  0.89841115  0.47192717     0.74600
O268        O  0.29293280  0.96790315  0.42475863    -0.58800
O269        O  0.22141884  0.90748368  0.49543605    -0.48900
O270        O  0.29414675  0.92716007  0.45451838    -0.55200
C271        C  0.32058564  0.98249675  0.52105260     0.84800
O272        O  0.24687865  0.99681448  0.49426630    -0.57100
O273        O  0.21319961  0.92234746  0.45006345    -0.60400
In274      In  0.99369728  0.68265400  0.46701318     1.36900
C275        C  0.01351782  0.65221429  0.42097033     0.77300
O276        O  0.03522650  0.73957859  0.44491211    -0.61200
O277        O  0.04413870  0.73015646  0.49196506    -0.52100
C278        C  0.93139990  0.68911746  0.46429807     0.69900
O279        O  0.93498247  0.66513043  0.44866042    -0.46900
C280        C  0.97613756  0.63637666  0.51600944     0.74600
O281        O  0.99057069  0.66373030  0.41691518    -0.58800
O282        O  0.00299108  0.67066448  0.51684672    -0.48900
O283        O  0.02602940  0.65585138  0.44854955    -0.55200
C284        C  0.05582218  0.75282133  0.46916827     0.84800
O285        O  0.96026730  0.71047968  0.48096744    -0.57100
O286        O  0.95882985  0.62567139  0.49014337    -0.60400
In287      In  0.33314779  0.89883137  0.35454088     1.36900
C288        C  0.26882421  0.83091384  0.34986729     0.77300
O289        O  0.32112914  0.90224558  0.40521704    -0.61200
O290        O  0.31890483  0.94144930  0.37417804    -0.52100
C291        C  0.40181506  0.91131059  0.36951783     0.69900
O292        O  0.37129787  0.87956414  0.37317640    -0.46900
C293        C  0.34590497  0.91585742  0.29385540     0.74600
O294        O  0.30009805  0.83517483  0.35925459    -0.58800
O295        O  0.33849596  0.93507093  0.31263495    -0.48900
O296        O  0.27086786  0.86168829  0.34238180    -0.55200
C297        C  0.31445360  0.92875182  0.40175604     0.84800
O298        O  0.39681418  0.93757250  0.35994947    -0.57100
O299        O  0.34732453  0.88884644  0.30651255    -0.60400
In300      In  0.05730065  0.62080133  0.34802154     1.36900
C301        C  0.12345887  0.68711595  0.34652044     0.77300
O302        O  0.06937985  0.61094239  0.29938571    -0.61200
O303        O  0.02015345  0.61500159  0.30618164    -0.52100
C304        C  0.04804461  0.55298710  0.36025813     0.69900
O305        O  0.07994131  0.58379739  0.36180513    -0.46900
C306        C  0.02645544  0.63780601  0.39533876     0.74600
O307        O  0.12056480  0.65687985  0.35678855    -0.58800
O308        O  0.01373448  0.63344793  0.36771283    -0.48900
O309        O  0.09241386  0.68287084  0.33653720    -0.55200
C310        C  0.04103164  0.61041050  0.28701455     0.84800
O311        O  0.02013188  0.55712150  0.35392925    -0.57100
O312        O  0.05280370  0.63076842  0.39900835    -0.60400
In313      In  0.72194171  0.68652085  0.47394997     1.36900
C314        C  0.69487227  0.63848374  0.52211130     0.77300
O315        O  0.66227093  0.65461453  0.45377641    -0.61200
O316        O  0.70910664  0.67540634  0.42243384    -0.52100
C317        C  0.72678407  0.75429977  0.47780780     0.69900
O318        O  0.70789205  0.72738705  0.49669162    -0.46900
C319        C  0.79059169  0.69264969  0.47041926     0.74600
O320        O  0.70538923  0.67318651  0.52481606    -0.58800
O321        O  0.76241099  0.67057158  0.45341674    -0.48900
O322        O  0.69743639  0.62827914  0.49482772    -0.55200
C323        C  0.67333130  0.65795937  0.42580156     0.84800
O324        O  0.74422606  0.74680257  0.45733615    -0.57100
O325        O  0.78381433  0.71251629  0.48885220    -0.60400
In326      In  0.00080615  0.23919168  0.47451067     1.36900
C327        C  0.98247798  0.26991938  0.52119149     0.77300
O328        O  0.03272025  0.29684332  0.45173913    -0.61200
O329        O  0.99510657  0.24955991  0.42332543    -0.52100
C330        C  0.06304571  0.23302220  0.47641881     0.69900
O331        O  0.05908432  0.25633842  0.49269309    -0.46900
C332        C  0.93761459  0.16969889  0.47486145     0.74600
O333        O  0.00665720  0.25979985  0.52438003    -0.58800
O334        O  0.94591435  0.19368965  0.45335203    -0.48900
O335        O  0.96820552  0.26491616  0.49413723    -0.55200
C336        C  0.01884155  0.28485931  0.42487162     0.84800
O337        O  0.03441032  0.21200060  0.45936771    -0.57100
O338        O  0.96226913  0.18122548  0.49654427    -0.60400
In339      In  0.94114202  0.30323803  0.59471686     1.36900
C340        C  0.87376902  0.23844592  0.59897515     0.77300
O341        O  0.94357188  0.29117951  0.54396831    -0.61200
O342        O  0.98397185  0.28970972  0.57447920    -0.52100
C343        C  0.95009784  0.37002154  0.57872651     0.69900
O344        O  0.91907899  0.33863431  0.57605389    -0.46900
C345        C  0.95791540  0.31417364  0.65581623     0.74600
O346        O  0.87691039  0.26976007  0.59189343    -0.58800
O347        O  0.97802138  0.30817964  0.63684055    -0.48900
O348        O  0.90532691  0.24072977  0.60414497    -0.55200
C349        C  0.97023091  0.28453123  0.54714092     0.84800
O350        O  0.97781974  0.36713222  0.58845583    -0.57100
O351        O  0.93080736  0.31556280  0.64305399    -0.60400
In352      In  0.66567250  0.02579024  0.59832193     1.36900
C353        C  0.73203803  0.09157879  0.60053055     0.77300
O354        O  0.66072828  0.04332240  0.64630580    -0.61200
O355        O  0.65530232  0.98929846  0.64184529    -0.52100
C356        C  0.59808170  0.01696947  0.58265323     0.69900
O357        O  0.62935642  0.04831769  0.58132341    -0.46900
C358        C  0.68318833  0.99451018  0.55155582     0.74600
O359        O  0.70135760  0.08855730  0.59076708    -0.58800
O360        O  0.67880920  0.98203325  0.57924022    -0.48900
O361        O  0.72854647  0.06045978  0.60903737    -0.55200
C362        C  0.65536043  0.01380972  0.66000275     0.84800
O363        O  0.60150802  0.98936515  0.59128835    -0.57100
O364        O  0.67694269  0.02127174  0.54790769    -0.60400
In365      In  0.72421497  0.96067470  0.47783523     1.36900
C366        C  0.69615582  0.98072782  0.52545628     0.77300
O367        O  0.78397044  0.99775010  0.49758597    -0.61200
O368        O  0.76858612  0.01685609  0.45737330    -0.52100
C369        C  0.72868882  0.89756649  0.47761617     0.69900
O370        O  0.70959375  0.90368779  0.49740395    -0.46900
C371        C  0.67498538  0.94165092  0.43040650     0.74600
O372        O  0.70697744  0.95714101  0.52864429    -0.58800
O373        O  0.71042949  0.96456821  0.42712023    -0.48900
O374        O  0.69877337  0.99307439  0.49800726    -0.55200
C375        C  0.79386600  0.02393881  0.47771550     0.84800
O376        O  0.74671257  0.92456971  0.45856369    -0.57100
O377        O  0.66482885  0.92922165  0.45782891    -0.60400
In378      In  0.59839488  0.89759322  0.35721617     1.36900
C379        C  0.59869951  0.83297211  0.35626781     0.77300
O380        O  0.57458817  0.88007399  0.30926123    -0.61200
O381        O  0.62718271  0.93256251  0.31363840    -0.52100
C382        C  0.54117776  0.90820447  0.37153699     0.69900
O383        O  0.53897073  0.87644789  0.37349264    -0.46900
C384        C  0.64759049  0.92853997  0.40435348     0.74600
O385        O  0.56956620  0.83439845  0.36394553    -0.58800
O386        O  0.65617465  0.94190753  0.37691095    -0.48900
O387        O  0.62731281  0.86478778  0.34889369    -0.55200
C388        C  0.60137755  0.90852410  0.29544630     0.84800
O389        O  0.57370117  0.93537171  0.36326345    -0.57100
O390        O  0.61362205  0.90137747  0.40770434    -0.60400
In391      In  0.59863214  0.62647947  0.35143444     1.36900
C392        C  0.59550953  0.68967913  0.35280796     0.77300
O393        O  0.61127790  0.63023358  0.40277106    -0.61200
O394        O  0.65747629  0.64705351  0.37113728    -0.52100
C395        C  0.54166410  0.55637095  0.36337947     0.69900
O396        O  0.53927618  0.58561892  0.36690320    -0.46900
C397        C  0.60363152  0.61835166  0.29005879     0.74600
O398        O  0.56713402  0.65728632  0.35928713    -0.58800
O399        O  0.62851098  0.62010926  0.30889848    -0.48900
O400        O  0.62513355  0.68921518  0.34520588    -0.55200
C401        C  0.64670470  0.64423881  0.39923291     0.84800
O402        O  0.57404561  0.56309594  0.35425987    -0.57100
O403        O  0.57770446  0.62157262  0.30287125    -0.60400
In404      In  0.39649716  0.29574770  0.59212213     1.36900
C405        C  0.40103913  0.23332507  0.59728364     0.77300
O406        O  0.42105176  0.31244601  0.63981321    -0.61200
O407        O  0.36313712  0.29693555  0.63419536    -0.52100
C408        C  0.45230162  0.36589982  0.57859813     0.69900
O409        O  0.45608782  0.33725089  0.57728625    -0.46900
C410        C  0.34847545  0.27587225  0.54393033     0.74600
O411        O  0.42762789  0.26426924  0.58618977    -0.58800
O412        O  0.33974351  0.28104943  0.57107901    -0.48900
O413        O  0.37212947  0.23463866  0.60575404    -0.55200
C414        C  0.39130614  0.30804153  0.65265960     0.84800
O415        O  0.41891834  0.35831345  0.58521875    -0.57100
O416        O  0.38197764  0.28214005  0.54130156    -0.60400
In417      In  0.39753937  0.02493718  0.59528781     1.36900
C418        C  0.39961938  0.09082317  0.60078864     0.77300
O419        O  0.38129324  0.02491383  0.54493965    -0.61200
O420        O  0.34087311  0.97993884  0.57372978    -0.52100
C421        C  0.45516137  0.01432384  0.58111971     0.69900
O422        O  0.45741577  0.04614391  0.57892694    -0.46900
C423        C  0.39076281  0.00823801  0.65628410     0.74600
O424        O  0.42776807  0.08879350  0.59116003    -0.58800
O425        O  0.36379181  0.98917526  0.63704661    -0.48900
O426        O  0.37094394  0.05905032  0.60803416    -0.55200
C427        C  0.34830716  0.99573233  0.54716970     0.84800
O428        O  0.42237618  0.98729084  0.58890461    -0.57100
O429        O  0.42093063  0.03464003  0.64395138    -0.60400
In430      In  0.27096420  0.23283402  0.47080507     1.36900
C431        C  0.32140783  0.26209561  0.51764108     0.77300
O432        O  0.24629848  0.17447300  0.49228174    -0.61200
O433        O  0.27724806  0.18586320  0.45006625    -0.52100
C434        C  0.20286934  0.22771536  0.47249046     0.69900
O435        O  0.22967536  0.24728659  0.49153138    -0.46900
C436        C  0.30024826  0.28087375  0.42271852     0.74600
O437        O  0.28673626  0.25194944  0.52080693    -0.58800
O438        O  0.28967425  0.24612752  0.42028388    -0.48900
O439        O  0.33064801  0.25816960  0.49034714    -0.55200
C440        C  0.25931225  0.16225300  0.47161588     0.84800
O441        O  0.21074288  0.20982283  0.45283092    -0.57100
O442        O  0.29704815  0.29117458  0.44977548    -0.60400
In443      In  0.05980370  0.35523259  0.34798450     1.36900
C444        C  0.12438885  0.35476870  0.34362716     0.77300
O445        O  0.05770417  0.34428568  0.39931265    -0.61200
O446        O  0.01713317  0.29895958  0.37037457    -0.52100
C447        C  0.05191604  0.41409943  0.36117228     0.69900
O448        O  0.08291326  0.41468658  0.36460229    -0.46900
C449        C  0.04246390  0.34895690  0.28748810     0.74600
O450        O  0.12354203  0.38416496  0.35098409    -0.58800
O451        O  0.02084824  0.32349391  0.30685777    -0.48900
O452        O  0.09194483  0.32588865  0.33800586    -0.55200
C453        C  0.03101551  0.30998420  0.39750862     0.84800
O454        O  0.02411629  0.38228949  0.35215348    -0.57100
O455        O  0.07203378  0.37685277  0.29935582    -0.60400
In456      In  0.33136170  0.35461438  0.34807031     1.36900
C457        C  0.26757821  0.35699798  0.34525084     0.77300
O458        O  0.34296639  0.37807940  0.29980909    -0.61200
O459        O  0.33476484  0.32294526  0.30576927    -0.52100
C460        C  0.40126447  0.41171132  0.36133197     0.69900
O461        O  0.37171809  0.41393504  0.36430442    -0.46900
C462        C  0.31347402  0.30716451  0.39610268     0.74600
O463        O  0.29891786  0.38436020  0.35527689    -0.58800
O464        O  0.31629896  0.29761387  0.36855775    -0.48900
O465        O  0.26914222  0.32836263  0.33667341    -0.55200
C466        C  0.34140203  0.34955966  0.28701169     0.84800
O467        O  0.39478081  0.37935231  0.35284329    -0.57100
O468        O  0.32135961  0.34102582  0.39902577    -0.60400
C469        C  0.19517123  0.38941058  0.34673867    -0.20600
C470        C  0.16062656  0.35458016  0.34235810    -0.07200
C471        C  0.16174346  0.32086732  0.33791859     0.13700
C472        C  0.19715620  0.32298462  0.33877472    -0.20700
C473        C  0.23159658  0.35766872  0.34392281    -0.07200
C474        C  0.23057343  0.39150729  0.34758591     0.13700
C475        C  0.26637520  0.43007852  0.35207781    -0.24000
H476        H  0.19454668  0.41535297  0.34979957     0.15000
H477        H  0.19781536  0.29705046  0.33579363     0.15000
C478        C  0.12607421  0.28237405  0.33264201    -0.24000
H479        H  0.25999165  0.45333356  0.35319174     0.05200
H480        H  0.28618146  0.43627709  0.33213624     0.08400
H481        H  0.28066615  0.43068407  0.37440711     0.08400
H482        H  0.11125454  0.28294537  0.31098815     0.08400
H483        H  0.10664879  0.27471298  0.35306523     0.08400
H484        H  0.13271726  0.25944723  0.32973577     0.05200
C485        C  0.37016434  0.16487011  0.61113007    -0.20600
C486        C  0.40270939  0.19796600  0.59983290    -0.07200
C487        C  0.43510101  0.19597334  0.59088806     0.13700
C488        C  0.43329491  0.16082228  0.59232285    -0.20700
C489        C  0.40016320  0.12740388  0.60241067    -0.07200
C490        C  0.36834250  0.12974459  0.61257608     0.13700
C491        C  0.33206490  0.09561980  0.62473477    -0.24000
H492        H  0.34547727  0.16624171  0.61845210     0.15000
H493        H  0.45792148  0.15938847  0.58491719     0.15000
C494        C  0.47171193  0.23038705  0.57961758    -0.24000
H495        H  0.31077181  0.10321774  0.63222791     0.05200
H496        H  0.33869390  0.08357123  0.64539902     0.08400
H497        H  0.31840979  0.07366935  0.60606130     0.08400
H498        H  0.48333470  0.25287570  0.59798557     0.08400
H499        H  0.46623153  0.24145444  0.55775195     0.08400
H500        H  0.49410841  0.22346397  0.57435345     0.05200
C501        C  0.50585935  0.48766804  0.34938018    -0.20600
C502        C  0.50839540  0.51735550  0.36775732    -0.07200
C503        C  0.47770558  0.50975539  0.38786372     0.13700
C504        C  0.44392224  0.47392405  0.38664108    -0.20700
C505        C  0.44007045  0.44533676  0.36616458    -0.07200
C506        C  0.47203965  0.45165594  0.34830889     0.13700
C507        C  0.47015524  0.42153343  0.32677555    -0.24000
H508        H  0.52966216  0.49328087  0.33442121     0.15000
H509        H  0.41976734  0.46864633  0.40100598     0.15000
C510        C  0.48016609  0.53907206  0.41071438    -0.24000
H511        H  0.49762185  0.43174737  0.31425116     0.05200
H512        H  0.44735861  0.41342188  0.30890339     0.08400
H513        H  0.46405627  0.39604359  0.34057312     0.08400
H514        H  0.48105886  0.56312071  0.39802281     0.08400
H515        H  0.50619185  0.54982081  0.42553706     0.08400
H516        H  0.45494416  0.52684847  0.42650351     0.05200
C517        C  0.56402748  0.76245621  0.36101118    -0.20600
C518        C  0.59880178  0.79676253  0.35576999    -0.07200
C519        C  0.63239186  0.79545454  0.35038257     0.13700
C520        C  0.62985363  0.76003292  0.34930164    -0.20700
C521        C  0.59504772  0.72568384  0.35417370    -0.07200
C522        C  0.56166466  0.72702019  0.36055579     0.13700
C523        C  0.52340363  0.69159735  0.36695758    -0.24000
H524        H  0.53832213  0.76328131  0.36551747     0.15000
H525        H  0.65562888  0.75931399  0.34487844     0.15000
C526        C  0.67130816  0.83095440  0.34631331    -0.24000
H527        H  0.50067306  0.69830009  0.37136111     0.05200
H528        H  0.52544695  0.67700148  0.38811042     0.08400
H529        H  0.51432157  0.67207872  0.34646318     0.08400
H530        H  0.67843448  0.84959990  0.36722161     0.08400
H531        H  0.67154813  0.84650395  0.32496532     0.08400
H532        H  0.69430515  0.82426077  0.34365454     0.05200
C533        C  0.52157137  0.04046110  0.56186957    -0.20600
C534        C  0.48919172  0.01037427  0.57650771    -0.07200
C535        C  0.49165590  0.97953046  0.58872699     0.13700
C536        C  0.52720229  0.98161172  0.58875884    -0.20700
C537        C  0.56036495  0.01342947  0.57668753    -0.07200
C538        C  0.55689679  0.04222414  0.56141152     0.13700
C539        C  0.58997519  0.07486626  0.54437787    -0.24000
H540        H  0.51956868  0.06347962  0.55142479     0.15000
H541        H  0.52940074  0.95892849  0.59964547     0.15000
C542        C  0.45758153  0.94495303  0.60287300    -0.24000
H543        H  0.58097673  0.09257775  0.53160338     0.05200
H544        H  0.60175390  0.06354470  0.52690549     0.08400
H545        H  0.61269604  0.09390523  0.56118988     0.08400
H546        H  0.43440775  0.93082547  0.58511130     0.08400
H547        H  0.44711617  0.95346214  0.62347684     0.08400
H548        H  0.46482285  0.92364536  0.61091428     0.05200
C549        C  0.83771040  0.16880956  0.60808277    -0.20600
C550        C  0.83668172  0.20168191  0.60068604    -0.07200
C551        C  0.80081079  0.19813547  0.59450797     0.13700
C552        C  0.76746364  0.16186450  0.59519552    -0.20700
C553        C  0.76864349  0.12886802  0.60174426    -0.07200
C554        C  0.80440022  0.13254688  0.60865571     0.13700
C555        C  0.80825838  0.09871092  0.61614788    -0.24000
H556        H  0.86499638  0.17132668  0.61306915     0.15000
H557        H  0.74014582  0.15930880  0.59025809     0.15000
C558        C  0.79698466  0.23197991  0.58692389    -0.24000
H559        H  0.83854160  0.10719837  0.62045451     0.05200
H560        H  0.79758267  0.07834934  0.59618545     0.08400
H561        H  0.79183946  0.08440518  0.63764750     0.08400
H562        H  0.81278856  0.24580223  0.56507683     0.08400
H563        H  0.80836427  0.25274435  0.60660094     0.08400
H564        H  0.76663078  0.22357977  0.58317858     0.05200
C565        C  0.10197716  0.20767049  0.45430591    -0.20600
C566        C  0.09845582  0.23093811  0.47663424    -0.07200
C567        C  0.12906088  0.25207889  0.49796871     0.13700
C568        C  0.16208494  0.24968972  0.49602190    -0.20700
C569        C  0.16596663  0.22700298  0.47337399    -0.07200
C570        C  0.13520373  0.20545281  0.45228173     0.13700
C571        C  0.13688778  0.18017466  0.42744734    -0.24000
H572        H  0.07870646  0.19139605  0.43792984     0.15000
H573        H  0.18538018  0.26619890  0.51231988     0.15000
C574        C  0.12760034  0.27730652  0.52302598    -0.24000
H575        H  0.11006494  0.16524950  0.41340041     0.05200
H576        H  0.14098715  0.15804479  0.43856602     0.08400
H577        H  0.16078517  0.19757307  0.41106185     0.08400
H578        H  0.10259687  0.26019193  0.53851711     0.08400
H579        H  0.12562986  0.30080994  0.51210062     0.08400
H580        H  0.15368314  0.29063186  0.53801336     0.05200
C581        C  0.88858025  0.11174552  0.50341722    -0.20600
C582        C  0.90157904  0.13163281  0.47496198    -0.07200
C583        C  0.87933458  0.11517259  0.44749969     0.13700
C584        C  0.84489130  0.07987616  0.44937094    -0.20700
C585        C  0.83166839  0.06019680  0.47778355    -0.07200
C586        C  0.85380963  0.07648673  0.50527836     0.13700
C587        C  0.84034653  0.05786224  0.53685271    -0.24000
H588        H  0.90525435  0.12430846  0.52454367     0.15000
H589        H  0.82798900  0.06752414  0.42830474     0.15000
C590        C  0.89157438  0.13408907  0.41588495    -0.24000
H591        H  0.86029991  0.07550970  0.55591830     0.05200
H592        H  0.83847764  0.02985872  0.53699668     0.08400
H593        H  0.81181305  0.05380826  0.54213495     0.08400
H594        H  0.92045959  0.13941099  0.41003426     0.08400
H595        H  0.89190726  0.16134957  0.41597636     0.08400
H596        H  0.87163775  0.11604591  0.39696063     0.05200
C597        C  0.73901667  0.81380274  0.45159355    -0.20600
C598        C  0.72763634  0.79115680  0.47871904    -0.07200
C599        C  0.71642731  0.80378165  0.50533156     0.13700
C600        C  0.71779465  0.83878197  0.50420100    -0.20700
C601        C  0.72932775  0.86148827  0.47712589    -0.07200
C602        C  0.73943487  0.84833507  0.45022866     0.13700
C603        C  0.74918483  0.86951047  0.41956500    -0.24000
H604        H  0.74681877  0.80396782  0.43093204     0.15000
H605        H  0.70954700  0.84841428  0.52473166     0.15000
C606        C  0.70314332  0.78091758  0.53516713    -0.24000
H607        H  0.75399695  0.85384810  0.40061905     0.05200
H608        H  0.77581106  0.89780571  0.42212525     0.08400
H609        H  0.72520995  0.87322082  0.41212277     0.08400
H610        H  0.72576006  0.77597112  0.54420197     0.08400
H611        H  0.67637160  0.75321066  0.53073680     0.08400
H612        H  0.69683495  0.79586519  0.55376190     0.05200
C613        C  0.01707289  0.44813124  0.35224355    -0.20600
C614        C  0.04886420  0.44843959  0.36538787    -0.07200
C615        C  0.07802885  0.48232406  0.37989770     0.13700
C616        C  0.07540538  0.51512019  0.37938186    -0.20700
C617        C  0.04494050  0.51551254  0.36438768    -0.07200
C618        C  0.01487961  0.48123261  0.35119851     0.13700
C619        C  0.98142863  0.47953948  0.33449545    -0.24000
H620        H  0.99458950  0.42226534  0.34125076     0.15000
H621        H  0.09821959  0.54120120  0.38987390     0.15000
C622        C  0.11241008  0.48476920  0.39562412    -0.24000
H623        H  0.96118912  0.45058758  0.32506412     0.05200
H624        H  0.99185591  0.49969193  0.31446807     0.08400
H625        H  0.96527045  0.48696508  0.35099343     0.08400
H626        H  0.13042320  0.48135865  0.37803928     0.08400
H627        H  0.10286350  0.46235824  0.41384775     0.08400
H628        H  0.13083987  0.51281754  0.40724383     0.05200
C629        C  0.44152594  0.88766314  0.39199324    -0.20600
C630        C  0.43996028  0.91583849  0.37453523    -0.07200
C631        C  0.47363580  0.94449986  0.35960136     0.13700
C632        C  0.50710692  0.94270406  0.36105397    -0.20700
C633        C  0.50758463  0.91254929  0.37625591    -0.07200
C634        C  0.47465997  0.88542737  0.39294136     0.13700
C635        C  0.47374421  0.85370424  0.41158352    -0.24000
H636        H  0.41601677  0.86610689  0.40396105     0.15000
H637        H  0.53238669  0.96373239  0.34853253     0.15000
C638        C  0.47417684  0.97574371  0.34054882    -0.24000
H639        H  0.44671608  0.83726243  0.42504330     0.05200
H640        H  0.49790111  0.86579586  0.42857368     0.08400
H641        H  0.47559016  0.83325838  0.39571467     0.08400
H642        H  0.46687135  0.99313161  0.35566976     0.08400
H643        H  0.45331905  0.96314088  0.32092166     0.08400
H644        H  0.50284413  0.99523258  0.33026807     0.05200
C645        C  0.19394252  0.72435860  0.35403707    -0.20600
C646        C  0.16033338  0.72422383  0.34645935    -0.07200
C647        C  0.16285972  0.75933361  0.33973428     0.13700
C648        C  0.19875745  0.79319498  0.34053852    -0.20700
C649        C  0.23235540  0.79341219  0.34832211    -0.07200
C650        C  0.22982207  0.75830105  0.35515614     0.13700
C651        C  0.26442567  0.75591238  0.36371140    -0.24000
H652        H  0.19218328  0.69761091  0.35928332     0.15000
H653        H  0.20040779  0.81992870  0.33548042     0.15000
C654        C  0.12807728  0.76193057  0.33238451    -0.24000
H655        H  0.25687798  0.72602438  0.36775490     0.05200
H656        H  0.27751573  0.77206353  0.38566835     0.08400
H657        H  0.28565207  0.76759270  0.34441113     0.08400
H658        H  0.10757632  0.75033941  0.35220028     0.08400
H659        H  0.11413129  0.74583936  0.31058831     0.08400
H660        H  0.13560981  0.79186623  0.32866888     0.05200
C661        C  0.89128343  0.71195961  0.48827720    -0.20600
C662        C  0.89603676  0.69134771  0.46419104    -0.07200
C663        C  0.86659523  0.67274466  0.44145472     0.13700
C664        C  0.83308493  0.67430397  0.44411639    -0.20700
C665        C  0.82789709  0.69413937  0.46864734    -0.07200
C666        C  0.85776283  0.71356116  0.49091102     0.13700
C667        C  0.85453868  0.73541419  0.51795637    -0.24000
H668        H  0.91371035  0.72636945  0.50568513     0.15000
H669        H  0.81058289  0.65963911  0.42680419     0.15000
C670        C  0.87015742  0.65159848  0.41398172    -0.24000
H671        H  0.88043323  0.74830332  0.53315075     0.05200
H672        H  0.82958389  0.71595803  0.53272818     0.08400
H673        H  0.85124071  0.75899602  0.50901131     0.08400
H674        H  0.87153100  0.62668550  0.42231492     0.08400
H675        H  0.89630361  0.67104394  0.40038264     0.08400
H676        H  0.84523534  0.64060725  0.39782442     0.05200
C677        C  0.10946116  0.80865934  0.44215182    -0.20600
C678        C  0.09133469  0.79122309  0.47042751    -0.07200
C679        C  0.10821299  0.81028294  0.49903802     0.13700
C680        C  0.14299108  0.84546934  0.49851339    -0.20700
C681        C  0.16160870  0.86242813  0.47031399    -0.07200
C682        C  0.14442607  0.84375107  0.44166261     0.13700
C683        C  0.16337697  0.85954942  0.41050444    -0.24000
H684        H  0.09676400  0.79417428  0.42022433     0.15000
H685        H  0.15593815  0.85979193  0.52044295     0.15000
C686        C  0.08981384  0.79422861  0.53032391    -0.24000
H687        H  0.14673698  0.84023455  0.39079614     0.05200
H688        H  0.19233718  0.86322157  0.41030914     0.08400
H689        H  0.16571657  0.88738663  0.40618843     0.08400
H690        H  0.08921167  0.76728042  0.53497670     0.08400
H691        H  0.06022030  0.78894702  0.53053512     0.08400
H692        H  0.10589110  0.81414374  0.54986881     0.05200
C693        C  0.25090170  0.06955854  0.49954354    -0.20600
C694        C  0.25442672  0.05432284  0.47110650    -0.07200
C695        C  0.25570185  0.07297206  0.44278651     0.13700
C696        C  0.25626610  0.10753110  0.44387705    -0.20700
C697        C  0.25475346  0.12380754  0.47236811    -0.07200
C698        C  0.25103163  0.10398891  0.50059168     0.13700
C699        C  0.24884532  0.11958193  0.53201310    -0.24000
H700        H  0.24940555  0.05514470  0.52125143     0.15000
H701        H  0.25822333  0.12217978  0.42218501     0.15000
C702        C  0.25570702  0.05645950  0.41119755    -0.24000
H703        H  0.24732219  0.10096458  0.55155114     0.05200
H704        H  0.22273455  0.12155497  0.53311403     0.08400
H705        H  0.27470039  0.14825114  0.53574515     0.08400
H706        H  0.23070482  0.02690551  0.40930479     0.08400
H707        H  0.28265300  0.05643092  0.40787161     0.08400
H708        H  0.25366624  0.07333815  0.39176217     0.05200
C709        C  0.51563663  0.40927828  0.55553453    -0.20600
C710        C  0.48543077  0.40498277  0.57421520    -0.07200
C711        C  0.49004692  0.43668272  0.59140909     0.13700
C712        C  0.52580795  0.47089541  0.59124802    -0.20700
C713        C  0.55709781  0.47386966  0.57489756    -0.07200
C714        C  0.55143413  0.44315997  0.55570204     0.13700
C715        C  0.58291652  0.44543645  0.53559288    -0.24000
H716        H  0.51176413  0.38521469  0.54183091     0.15000
H717        H  0.53000760  0.49459366  0.60564142     0.15000
C718        C  0.45845750  0.43406142  0.61154688    -0.24000
H719        H  0.57224048  0.41999574  0.52021414     0.05200
H720        H  0.60591501  0.44680142  0.55047990     0.08400
H721        H  0.59488349  0.47100215  0.52034047     0.08400
H722        H  0.44993166  0.41148018  0.62944910     0.08400
H723        H  0.43332120  0.42733876  0.59672119     0.08400
H724        H  0.46755525  0.46128607  0.62401344     0.05200
C725        C  0.92418451  0.44458961  0.55923986    -0.20600
C726        C  0.95431889  0.47707338  0.57379193    -0.07200
C727        C  0.98577244  0.47536416  0.58591026     0.13700
C728        C  0.98469291  0.44049610  0.58515673    -0.20700
C729        C  0.95282841  0.40715600  0.57314326    -0.07200
C730        C  0.92277607  0.40969416  0.55886925     0.13700
C731        C  0.88852532  0.37588543  0.54371261    -0.24000
H732        H  0.90049849  0.44600120  0.54922736     0.15000
H733        H  0.00801861  0.43886181  0.59565734     0.15000
C734        C  0.01970982  0.50936956  0.60104582    -0.24000
H735        H  0.86960222  0.38411869  0.53184601     0.05200
H736        H  0.87089580  0.35431981  0.56166079     0.08400
H737        H  0.89822618  0.36310161  0.52576080     0.08400
H738        H  0.01024169  0.51872466  0.62177487     0.08400
H739        H  0.03380486  0.53304140  0.58391099     0.08400
H740        H  0.04146443  0.50266969  0.60917597     0.05200
C741        C  0.83603426  0.59857527  0.59441362    -0.20600
C742        C  0.83438876  0.56352530  0.59636157    -0.07200
C743        C  0.79828471  0.52947023  0.59935895     0.13700
C744        C  0.76504483  0.53152703  0.60022421    -0.20700
C745        C  0.76668625  0.56654187  0.59822861    -0.07200
C746        C  0.80277223  0.60061319  0.59516772     0.13700
C747        C  0.80669920  0.63914227  0.59174833    -0.24000
H748        H  0.86360484  0.62467677  0.59187141     0.15000
H749        H  0.73743214  0.50542811  0.60259133     0.15000
C750        C  0.79423557  0.49084978  0.60220641    -0.24000
H751        H  0.83696517  0.66222108  0.58814488     0.05200
H752        H  0.79641959  0.64621656  0.61327929     0.08400
H753        H  0.78992060  0.63899831  0.57116517     0.08400
H754        H  0.81101204  0.49061738  0.62263667     0.08400
H755        H  0.80440848  0.48405882  0.58046398     0.08400
H756        H  0.76394858  0.46778121  0.60570760     0.05200
C757        C  0.63647925  0.02775376  0.74485446    -0.20600
C758        C  0.65001213  0.00731272  0.76117823    -0.07200
C759        C  0.66193535  0.98574394  0.74383662     0.13700
C760        C  0.66187251  0.98698533  0.71076951    -0.20700
C761        C  0.65053252  0.00947033  0.69461645    -0.07200
C762        C  0.63656513  0.02921449  0.71206878     0.13700
C763        C  0.62136989  0.05188682  0.69655632    -0.24000
H764        H  0.62646975  0.04361306  0.75793175     0.15000
H765        H  0.67219068  0.97152751  0.69751479     0.15000
C766        C  0.67613204  0.96262258  0.75985363    -0.24000
H767        H  0.60860021  0.06245170  0.71378769     0.05200
H768        H  0.59868300  0.03368012  0.67934583     0.08400
H769        H  0.64492644  0.07728481  0.68469706     0.08400
H770        H  0.65299681  0.94023351  0.77452992     0.08400
H771        H  0.70135849  0.98149744  0.77474430     0.08400
H772        H  0.68495332  0.94820219  0.74271540     0.05200
C773        C  0.97964132  0.30248641  0.74107904    -0.20600
C774        C  0.95937919  0.31679424  0.75681042    -0.07200
C775        C  0.94356546  0.33461610  0.73911387     0.13700
C776        C  0.94629745  0.33546003  0.70640873    -0.20700
C777        C  0.96362172  0.31836530  0.69039964    -0.07200
C778        C  0.98170037  0.30272067  0.70804315     0.13700
C779        C  0.00160391  0.28474360  0.69238740    -0.24000
H780        H  0.99227591  0.28935047  0.75459478     0.15000
H781        H  0.93331234  0.34841725  0.69310417     0.15000
C782        C  0.92352621  0.35284961  0.75429507    -0.24000
H783        H  0.01366362  0.27356294  0.70975787     0.05200
H784        H  0.02560859  0.30628137  0.67784268     0.08400
H785        H  0.98096748  0.26053512  0.67740982     0.08400
H786        H  0.94257728  0.37400140  0.77213437     0.08400
H787        H  0.89647218  0.33074599  0.76537767     0.08400
H788        H  0.91582610  0.36802996  0.73697747     0.05200
C789        C  0.80244247  0.19861746  0.85816101    -0.20600
C790        C  0.83646580  0.19800463  0.85570650    -0.07200
C791        C  0.83437567  0.16236651  0.85492731     0.13700
C792        C  0.79844893  0.12864824  0.85612334    -0.20700
C793        C  0.76446245  0.12929013  0.85803824    -0.07200
C794        C  0.76647432  0.16482723  0.85913545     0.13700
C795        C  0.73105002  0.16764176  0.86021702    -0.24000
H796        H  0.80390093  0.22579635  0.85878143     0.15000
H797        H  0.79691582  0.10142649  0.85554835     0.15000
C798        C  0.86957783  0.15921048  0.85324119    -0.24000
H799        H  0.73816885  0.19772546  0.85938940     0.05200
H800        H  0.71519517  0.15503658  0.88229518     0.08400
H801        H  0.71234463  0.15246134  0.83979708     0.08400
H802        H  0.88890930  0.17467653  0.87326660     0.08400
H803        H  0.88475420  0.17124924  0.83080585     0.08400
H804        H  0.86232066  0.12908819  0.85431754     0.05200
C805        C  0.85117156  0.06928078  0.95054249    -0.20600
C806        C  0.82888007  0.05957148  0.97786965    -0.07200
C807        C  0.84269218  0.08535237  0.00353382     0.13700
C808        C  0.87783061  0.11993942  0.00091201    -0.20700
C809        C  0.89983589  0.12986413  0.97344776    -0.07200
C810        C  0.88623972  0.10400909  0.94788398     0.13700
C811        C  0.90770879  0.11302465  0.91736007    -0.24000
H812        H  0.84073385  0.04983893  0.93076184     0.21000
H813        H  0.88816918  0.13951955  0.02060798     0.15000
C814        C  0.82105223  0.07685107  0.03395495    -0.24000
H815        H  0.89194153  0.09027737  0.89958084     0.05200
H816        H  0.93593755  0.11571390  0.92115887     0.08400
H817        H  0.91186745  0.14002506  0.90763147     0.08400
H818        H  0.81615549  0.04960979  0.04380989     0.08400
H819        H  0.79323362  0.07500714  0.03001358     0.08400
H820        H  0.83707703  0.09952548  0.05173912     0.05200
C821        C  0.57233758  0.59635399  0.20499983    -0.20600
C822        C  0.60760053  0.61435424  0.18932107    -0.07200
C823        C  0.64183523  0.62987386  0.20711661     0.13700
C824        C  0.63978651  0.62908714  0.24012948    -0.20700
C825        C  0.60444098  0.61362441  0.25563797    -0.07200
C826        C  0.57020152  0.59573895  0.23771962     0.13700
C827        C  0.53105224  0.57569820  0.25270195    -0.24000
H828        H  0.54600573  0.58348054  0.19146225     0.15000
H829        H  0.66598562  0.64225081  0.25383471     0.15000
C830        C  0.68051852  0.64888046  0.19162631    -0.24000
H831        H  0.50783484  0.56037062  0.23513005     0.05200
H832        H  0.52575471  0.59666735  0.26451074     0.08400
H833        H  0.52891518  0.55435058  0.26989019     0.08400
H834        H  0.68449780  0.67311704  0.17707771     0.08400
H835        H  0.68277474  0.62795281  0.17666067     0.08400
H836        H  0.70415734  0.66020018  0.20909381     0.05200
C837        C  0.63237226  0.93402392  0.20981914    -0.20600
C838        C  0.59817316  0.90817378  0.19416046    -0.07200
C839        C  0.56472845  0.88514957  0.21215933     0.13700
C840        C  0.56694144  0.88746175  0.24489902    -0.20700
C841        C  0.60146018  0.91180277  0.26067838    -0.07200
C842        C  0.63453437  0.93604144  0.24281151     0.13700
C843        C  0.67243132  0.96314341  0.25814217    -0.24000
H844        H  0.65792497  0.95192062  0.19620274     0.15000
H845        H  0.54132101  0.86930620  0.25836729     0.15000
C846        C  0.52627278  0.85790484  0.19744193    -0.24000
H847        H  0.69525431  0.97939918  0.24059421     0.05200
H848        H  0.68160894  0.94698261  0.27292002     0.08400
H849        H  0.66976462  0.98406182  0.27278337     0.08400
H850        H  0.52725480  0.83453839  0.18515692     0.08400
H851        H  0.51829224  0.87347625  0.18078734     0.08400
H852        H  0.50314290  0.84432722  0.21518471     0.05200
C853        C  0.56222745  0.75936209  0.10042081    -0.20600
C854        C  0.59677794  0.79412522  0.09618542    -0.07200
C855        C  0.63082813  0.79390085  0.09033321     0.13700
C856        C  0.62949960  0.75908044  0.08975054    -0.20700
C857        C  0.59513879  0.72434493  0.09441166    -0.07200
C858        C  0.56085767  0.72441494  0.09953336     0.13700
C859        C  0.52290054  0.68813755  0.10470535    -0.24000
H860        H  0.53613912  0.75955481  0.10472502     0.15000
H861        H  0.65562779  0.75901149  0.08530848     0.15000
C862        C  0.66855961  0.82991003  0.08368217    -0.24000
H863        H  0.49961959  0.69392431  0.10954536     0.05200
H864        H  0.52497421  0.67247750  0.12508741     0.08400
H865        H  0.51458770  0.66991343  0.08343475     0.08400
H866        H  0.67844975  0.84866037  0.10466023     0.08400
H867        H  0.66532507  0.84515529  0.06352799     0.08400
H868        H  0.69135149  0.82380439  0.07765563     0.05200
C869        C  0.36745281  0.38372222  0.23722469    -0.20600
C870        C  0.34674512  0.34856980  0.25266969    -0.07200
C871        C  0.32963028  0.31455563  0.23471277     0.13700
C872        C  0.33101269  0.31688882  0.20174764    -0.20700
C873        C  0.34907037  0.35231595  0.18635296    -0.07200
C874        C  0.36907651  0.38616088  0.20449336     0.13700
C875        C  0.39224522  0.42518880  0.18985376    -0.24000
H876        H  0.38169549  0.40979441  0.25094165     0.15000
H877        H  0.31635538  0.29090303  0.18797141     0.15000
C878        C  0.30848374  0.27587626  0.24993926    -0.24000
H879        H  0.40869884  0.44768485  0.20767138     0.05200
H880        H  0.37309073  0.43291294  0.17778566     0.08400
H881        H  0.41313971  0.42555480  0.17299667     0.08400
H882        H  0.28440326  0.27309870  0.26415312     0.08400
H883        H  0.32839965  0.27213934  0.26516685     0.08400
H884        H  0.29640796  0.25248945  0.23232829     0.05200
C885        C  0.47982994  0.51547579  0.05579225    -0.20600
C886        C  0.50944582  0.51881715  0.07497764    -0.07200
C887        C  0.50415734  0.48632843  0.09122828     0.13700
C888        C  0.46876741  0.45204163  0.08902714    -0.20700
C889        C  0.43829910  0.44961410  0.07173947    -0.07200
C890        C  0.44428007  0.48137114  0.05399738     0.13700
C891        C  0.41354283  0.47971627  0.03313052    -0.24000
H892        H  0.48405199  0.54015051  0.04290979     0.15000
H893        H  0.46410358  0.42762603  0.10256247     0.15000
C894        C  0.53454892  0.48787772  0.11243515    -0.24000
H895        H  0.42443717  0.50620390  0.01916200     0.05200
H896        H  0.38931887  0.47645272  0.04737211     0.08400
H897        H  0.40314838  0.45542426  0.01651975     0.08400
H898        H  0.54167469  0.50924336  0.13130819     0.08400
H899        H  0.56061104  0.49552468  0.09866774     0.08400
H900        H  0.52489172  0.45996229  0.12379182     0.05200
C901        C  0.04765260  0.38230169  0.23820495    -0.20600
C902        C  0.03505379  0.34747936  0.25343484    -0.07200
C903        C  0.02007700  0.31367408  0.23546044     0.13700
C904        C  0.02071320  0.31608995  0.20256493    -0.20700
C905        C  0.03648024  0.35148762  0.18743434    -0.07200
C906        C  0.04851254  0.38482934  0.20550863     0.13700
C907        C  0.06242642  0.42327454  0.19069132    -0.24000
H908        H  0.05826687  0.40807239  0.25206030     0.15000
H909        H  0.01108225  0.29053182  0.18865395     0.15000
C910        C  0.00574649  0.27548978  0.25064631    -0.24000
H911        H  0.06712635  0.44517320  0.20842178     0.05200
H912        H  0.04079556  0.42117456  0.17364575     0.08400
H913        H  0.09017082  0.43354918  0.17870184     0.08400
H914        H  0.98102743  0.26847532  0.26599585     0.08400
H915        H  0.02901024  0.27622016  0.26478103     0.08400
H916        H  0.99608776  0.25230514  0.23300578     0.05200
C917        C  0.23358681  0.39323077  0.09191563    -0.20600
C918        C  0.23175735  0.35859520  0.09781460    -0.07200
C919        C  0.19579253  0.32556645  0.10423366     0.13700
C920        C  0.16286203  0.32812857  0.10413800    -0.20700
C921        C  0.16454565  0.36254575  0.09756034    -0.07200
C922        C  0.20058226  0.39572563  0.09160903     0.13700
C923        C  0.20490679  0.43393649  0.08502627    -0.24000
H924        H  0.26110924  0.41864008  0.08722210     0.15000
H925        H  0.13534813  0.30265018  0.10868277     0.15000
C926        C  0.19131140  0.28720897  0.11044248    -0.24000
H927        H  0.23540542  0.45675935  0.08209147     0.05200
H928        H  0.19316269  0.44231372  0.10482661     0.08400
H929        H  0.18970730  0.43250528  0.06299806     0.08400
H930        H  0.20740001  0.28865316  0.13192431     0.08400
H931        H  0.20195256  0.27845857  0.09009688     0.08400
H932        H  0.16088511  0.26460977  0.11415135     0.05200
C933        C  0.74635388  0.81702842  0.99637723    -0.20600
C934        C  0.73052317  0.79235465  0.97053032    -0.07200
C935        C  0.71488004  0.80299357  0.94559662     0.13700
C936        C  0.71523794  0.83747578  0.94751657    -0.20700
C937        C  0.73064519  0.86189823  0.97357481    -0.07200
C938        C  0.74659520  0.85141337  0.99832941     0.13700
C939        C  0.76323994  0.87561504  0.02732697    -0.24000
H940        H  0.75830649  0.80915724  0.01556562     0.15000
H941        H  0.70308468  0.84530410  0.92844717     0.15000
C942        C  0.69749650  0.77840184  0.91686816    -0.24000
H943        H  0.77336108  0.86237788  0.04450920     0.05200
H944        H  0.74111590  0.87933102  0.03907157     0.08400
H945        H  0.78822191  0.90385493  0.02096861     0.08400
H946        H  0.67244787  0.75036992  0.92358992     0.08400
H947        H  0.71922539  0.77426302  0.90489055     0.08400
H948        H  0.68724113  0.79157898  0.89974669     0.05200
C949        C  0.14486417  0.21760683  0.99558813    -0.20600
C950        C  0.16529154  0.22553497  0.96740634    -0.07200
C951        C  0.15056678  0.23328411  0.94016420     0.13700
C952        C  0.11620278  0.23320849  0.94201478    -0.20700
C953        C  0.09606541  0.22585626  0.97026012    -0.07200
C954        C  0.11060100  0.21785132  0.99746600     0.13700
C955        C  0.09114882  0.21093023  0.02881163    -0.24000
H956        H  0.15628402  0.21210789  0.01653806     0.15000
H957        H  0.10506535  0.23922651  0.92115146     0.15000
C958        C  0.17042331  0.24132536  0.90889020    -0.24000
H959        H  0.10758077  0.20699371  0.04768415     0.05200
H960        H  0.06232317  0.18467523  0.02778349     0.08400
H961        H  0.08849867  0.23572880  0.03531095     0.08400
H962        H  0.17458227  0.21747294  0.90232168     0.08400
H963        H  0.19851709  0.26844913  0.90999774     0.08400
H964        H  0.15347565  0.24438968  0.88996575     0.05200
C965        C  0.42212237  0.01289404  0.70714391    -0.20600
C966        C  0.38806143  0.00180956  0.69069760    -0.07200
C967        C  0.35376289  0.98887928  0.70778004     0.13700
C968        C  0.35508128  0.98997733  0.74079276    -0.20700
C969        C  0.38984489  0.00404771  0.75703710    -0.07200
C970        C  0.42348727  0.01406140  0.73997309     0.13700
C971        C  0.46099565  0.02583172  0.75613383    -0.24000
H972        H  0.44824989  0.02187666  0.69415521     0.15000
H973        H  0.32923501  0.98182929  0.75390686     0.15000
C974        C  0.31618053  0.97598369  0.69149517    -0.24000
H975        H  0.48327605  0.02939104  0.73922856     0.05200
H976        H  0.45684358  0.00364709  0.77328246     0.08400
H977        H  0.47214682  0.05355183  0.76830890     0.08400
H978        H  0.30835112  0.95070326  0.67663392     0.08400
H979        H  0.31855717  0.99941787  0.67673537     0.08400
H980        H  0.29257048  0.96779060  0.70846311     0.05200
C981        C  0.51810917  0.04109237  0.88785735    -0.20600
C982        C  0.48659271  0.01179055  0.87163552    -0.07200
C983        C  0.48927666  0.98118549  0.85914901     0.13700
C984        C  0.52436504  0.98250689  0.86102510    -0.20700
C985        C  0.55683589  0.01361274  0.87481576    -0.07200
C986        C  0.55310336  0.04245694  0.88970305     0.13700
C987        C  0.58564732  0.07490816  0.90757105    -0.24000
H988        H  0.51580373  0.06395326  0.89831961     0.15000
H989        H  0.52696346  0.96004507  0.85011633     0.15000
C990        C  0.45612807  0.94791709  0.84257556    -0.24000
H991        H  0.57633234  0.09264498  0.91988699     0.05200
H992        H  0.60896510  0.09401499  0.89135591     0.08400
H993        H  0.59675529  0.06341227  0.92550064     0.08400
H994        H  0.44750033  0.95811232  0.82185444     0.08400
H995        H  0.43156988  0.93284188  0.85887299     0.08400
H996        H  0.46362597  0.92690934  0.83420241     0.05200
C997        C  0.42080228  0.33599571  0.73755301    -0.20600
C998        C  0.38575019  0.31389067  0.75299515    -0.07200
C999        C  0.35164441  0.29427920  0.73508446     0.13700
C1000       C  0.35404963  0.29466231  0.70215103    -0.20700
C1001       C  0.38966275  0.31392249  0.68683152    -0.07200
C1002       C  0.42335665  0.33632292  0.70487192     0.13700
C1003       C  0.46239745  0.36046824  0.69023339    -0.24000
H1004       H  0.44682075  0.35201266  0.75128749     0.15000
H1005       H  0.32814119  0.27816760  0.68841532     0.15000
C1006       C  0.31297765  0.27138292  0.75039105    -0.24000
H1007       H  0.48457240  0.37843007  0.70788796     0.05200
H1008       H  0.46157125  0.37987949  0.67258439     0.08400
H1009       H  0.47166661  0.34207476  0.67912780     0.08400
H1010       H  0.30744080  0.29040316  0.76507534     0.08400
H1011       H  0.31207078  0.24865615  0.76518592     0.08400
H1012       H  0.28953531  0.25748878  0.73281269     0.05200
C1013       C  0.43018167  0.19943560  0.85012051    -0.20600
C1014       C  0.39521343  0.19736560  0.84433888    -0.07200
C1015       C  0.36181998  0.16114222  0.83931904     0.13700
C1016       C  0.36443766  0.12835968  0.84030025    -0.20700
C1017       C  0.39920302  0.13028686  0.84667285    -0.07200
C1018       C  0.43268234  0.16653751  0.85153567     0.13700
C1019       C  0.47118566  0.17119645  0.85836652    -0.24000
H1020       H  0.45584195  0.22707010  0.85392620     0.15000
H1021       H  0.33871274  0.10077123  0.83656145     0.15000
C1022       C  0.32297494  0.15623418  0.83366323    -0.24000
H1023       H  0.49404543  0.20166375  0.86098492     0.05200
H1024       H  0.47955331  0.15909206  0.83883999     0.08400
H1025       H  0.46994125  0.15663627  0.88063273     0.08400
H1026       H  0.32342913  0.17115271  0.81183266     0.08400
H1027       H  0.31496251  0.16773250  0.85388319     0.08400
H1028       H  0.30021161  0.12575926  0.83089822     0.05200
C1029       C  0.01642933  0.61951506  0.20226672    -0.20600
C1030       C  0.03569500  0.60426291  0.18640820    -0.07200
C1031       C  0.05140441  0.58620094  0.20393670     0.13700
C1032       C  0.05050920  0.58702507  0.23667239    -0.20700
C1033       C  0.03429939  0.60518447  0.25268097    -0.07200
C1034       C  0.01552294  0.62023151  0.23526303     0.13700
C1035       C  0.99606172  0.63854704  0.25109429    -0.24000
H1036       H  0.00368564  0.63262256  0.18885515     0.15000
H1037       H  0.06375582  0.57430028  0.24994490     0.15000
C1038       C  0.06926824  0.56588651  0.18856904    -0.24000
H1039       H  0.98339896  0.64923362  0.23384197     0.05200
H1040       H  0.01711505  0.66312374  0.26554416     0.08400
H1041       H  0.97252727  0.61733403  0.26618862     0.08400
H1042       H  0.09636818  0.58668757  0.17676948     0.08400
H1043       H  0.04894562  0.54468233  0.17132872     0.08400
H1044       H  0.07645133  0.55032453  0.20591317     0.05200
C1045       C  0.07067133  0.51393888  0.05792441    -0.20600
C1046       C  0.04160343  0.51527020  0.07429072    -0.07200
C1047       C  0.01274777  0.48188085  0.08935809     0.13700
C1048       C  0.01517929  0.44886556  0.08906762    -0.20700
C1049       C  0.04599751  0.44865359  0.07466491    -0.07200
C1050       C  0.07344427  0.48128846  0.05802824     0.13700
C1051       C  0.10597951  0.48226620  0.04041349    -0.24000
H1052       H  0.09241077  0.53926165  0.04592553     0.15000
H1053       H  0.99405476  0.42376463  0.10167580     0.15000
C1054       C  0.98059173  0.48126570  0.10722363    -0.24000
H1055       H  0.12250517  0.50888580  0.02659898     0.05200
H1056       H  0.09451459  0.45781873  0.02385947     0.08400
H1057       H  0.12633770  0.48113734  0.05700390     0.08400
H1058       H  0.96312140  0.48749907  0.09111960     0.08400
H1059       H  0.99246796  0.50279879  0.12634525     0.08400
H1060       H  0.96122950  0.45298567  0.11801963     0.05200
C1061       C  0.33488440  0.93832697  0.20912128    -0.20600
C1062       C  0.35119159  0.92011885  0.19321663    -0.07200
C1063       C  0.37104320  0.90625881  0.21071645     0.13700
C1064       C  0.37068414  0.90760210  0.24352051    -0.20700
C1065       C  0.35133639  0.92260208  0.25954502    -0.07200
C1066       C  0.33480060  0.93988453  0.24208074     0.13700
C1067       C  0.31560700  0.95853028  0.25782918    -0.24000
H1068       H  0.32051417  0.94980968  0.19576301     0.15000
H1069       H  0.38462618  0.89560005  0.25681071     0.15000
C1070       C  0.39280241  0.89001220  0.19523325    -0.24000
H1071       H  0.30403794  0.97027750  0.24053615     0.05200
H1072       H  0.33668227  0.98251659  0.27276679     0.08400
H1073       H  0.29135897  0.93735207  0.27238145     0.08400
H1074       H  0.41342693  0.91074124  0.17802171     0.08400
H1075       H  0.37269802  0.86268446  0.18334061     0.08400
H1076       H  0.40937714  0.88397239  0.21251940     0.05200
C1077       C  0.50578254  0.94102041  0.09454139    -0.20600
C1078       C  0.50601827  0.91066940  0.07929843    -0.07200
C1079       C  0.47305635  0.88389959  0.06219405     0.13700
C1080       C  0.44045199  0.88704885  0.06234011    -0.20700
C1081       C  0.43913649  0.91544044  0.07969690    -0.07200
C1082       C  0.47268910  0.94357378  0.09527960     0.13700
C1083       C  0.47341589  0.97507309  0.11415518    -0.24000
H1084       H  0.53098404  0.96176113  0.10745974     0.15000
H1085       H  0.41498137  0.86586144  0.04993412     0.15000
C1086       C  0.47123713  0.85126833  0.04421534    -0.24000
H1087       H  0.50189005  0.99406118  0.12510496     0.05200
H1088       H  0.45195028  0.96272276  0.13325643     0.08400
H1089       H  0.46700921  0.99288430  0.09872551     0.08400
H1090       H  0.47254207  0.83097162  0.06061026     0.08400
H1091       H  0.49529314  0.86237787  0.02730477     0.08400
H1092       H  0.44410738  0.83490139  0.03071614     0.05200
C1093       C  0.19626759  0.79428470  0.10160217    -0.20600
C1094       C  0.23055651  0.79410078  0.09999813    -0.07200
C1095       C  0.22880504  0.75869996  0.09798932     0.13700
C1096       C  0.19292161  0.72478838  0.09673503    -0.20700
C1097       C  0.15860918  0.72500371  0.09770821    -0.07200
C1098       C  0.16038697  0.76038155  0.10044405     0.13700
C1099       C  0.12490611  0.76310498  0.10137438    -0.24000
H1100       H  0.19747887  0.82130538  0.10318295     0.15000
H1101       H  0.19171357  0.69777833  0.09504003     0.15000
C1102       C  0.26433956  0.75604101  0.09770284    -0.24000
H1103       H  0.13199133  0.79316620  0.10253976     0.05200
H1104       H  0.10776504  0.74837916  0.12247536     0.08400
H1105       H  0.10750347  0.75008360  0.07989347     0.08400
H1106       H  0.28198260  0.77028669  0.11883409     0.08400
H1107       H  0.28124928  0.76960819  0.07624291     0.08400
H1108       H  0.25728834  0.72596379  0.09780393     0.05200
C1109       C  0.88622499  0.69789993  0.00393076    -0.20600
C1110       C  0.90616784  0.70493236  0.97551054    -0.07200
C1111       C  0.89217223  0.71455279  0.94877858     0.13700
C1112       C  0.85769766  0.71440710  0.95080863    -0.20700
C1113       C  0.83649956  0.70484568  0.97866922    -0.07200
C1114       C  0.85176635  0.69782802  0.00592664     0.13700
C1115       C  0.83237689  0.69071247  0.03732823    -0.24000
H1116       H  0.89716522  0.69150065  0.02470640     0.15000
H1117       H  0.84651475  0.72053205  0.93003359     0.15000
C1118       C  0.91286804  0.72470042  0.91783072    -0.24000
H1119       H  0.84981440  0.68857997  0.05633745     0.05200
H1120       H  0.80439200  0.66345782  0.03688460     0.08400
H1121       H  0.82803698  0.71462483  0.04324023     0.08400
H1122       H  0.91363357  0.69985361  0.90837108     0.08400
H1123       H  0.94247230  0.74939026  0.92093738     0.08400
H1124       H  0.89843418  0.73281632  0.90006058     0.05200
C1125       C  0.14995388  0.85219264  0.94506111    -0.20600
C1126       C  0.16910541  0.86644637  0.97374867    -0.07200
C1127       C  0.15277344  0.84493462  0.00134106     0.13700
C1128       C  0.11731017  0.81061384  0.99963020    -0.20700
C1129       C  0.09813922  0.79620735  0.97099486    -0.07200
C1130       C  0.11491353  0.81724425  0.94322216     0.13700
C1131       C  0.09623678  0.80338320  0.91157216    -0.24000
H1132       H  0.16265829  0.86839149  0.92386386     0.15000
H1133       H  0.10504554  0.79424222  0.02082798     0.15000
C1134       C  0.17330625  0.85671312  0.03248753    -0.24000
H1135       H  0.11256502  0.82431596  0.89280319     0.05200
H1136       H  0.06688243  0.79871551  0.91190289     0.08400
H1137       H  0.09493369  0.77641189  0.90537745     0.08400
H1138       H  0.17626836  0.88389756  0.04047756     0.08400
H1139       H  0.20206704  0.86013322  0.03031291     0.08400
H1140       H  0.15748010  0.83508843  0.05093010     0.05200
C1141       C  0.24468163  0.06507688  0.95720457    -0.20600
C1142       C  0.26905373  0.06236251  0.97897381    -0.07200
C1143       C  0.29151465  0.09369373  0.99923804     0.13700
C1144       C  0.28946616  0.12675683  0.99658349    -0.20700
C1145       C  0.26569422  0.12980101  0.97434951    -0.07200
C1146       C  0.24270624  0.09819548  0.95451347     0.13700
C1147       C  0.21617655  0.09884056  0.93021776    -0.24000
H1148       H  0.22731707  0.04120885  0.94170174     0.15000
H1149       H  0.30700791  0.15067731  0.01199011     0.15000
C1150       C  0.31778209  0.09295727  0.02380145    -0.24000
H1151       H  0.20034095  0.07147654  0.91711123     0.05200
H1152       H  0.23290907  0.12175026  0.91292621     0.08400
H1153       H  0.19462033  0.10362996  0.94171339     0.08400
H1154       H  0.34058760  0.09000356  0.01247181     0.08400
H1155       H  0.30106797  0.06888466  0.04016042     0.08400
H1156       H  0.33217695  0.11961948  0.03792532     0.05200
C1157       C  0.94762890  0.54130961  0.73832251    -0.20600
C1158       C  0.95935619  0.57553682  0.75442445    -0.07200
C1159       C  0.97193181  0.60937497  0.73697438     0.13700
C1160       C  0.97058797  0.60752570  0.70396869    -0.20700
C1161       C  0.95656011  0.57270109  0.68805570    -0.07200
C1162       C  0.94602367  0.53934377  0.70555903     0.13700
C1163       C  0.93329318  0.50143157  0.69006580    -0.24000
H1164       H  0.93867971  0.51547543  0.75156153     0.15000
H1165       H  0.97890705  0.63310548  0.69057194     0.15000
C1166       C  0.98505246  0.64706272  0.75281419    -0.24000
H1167       H  0.92948573  0.47947999  0.70733782     0.05200
H1168       H  0.95515352  0.50463966  0.67285646     0.08400
H1169       H  0.90531102  0.49053074  0.67814527     0.08400
H1170       H  0.01070189  0.65520038  0.76745920     0.08400
H1171       H  0.96172240  0.64489503  0.76771846     0.08400
H1172       H  0.99294162  0.67024058  0.73556250     0.05200
C1173       C  0.98540823  0.47484574  0.85838659    -0.20600
C1174       C  0.95430532  0.47556938  0.87163777    -0.07200
C1175       C  0.92623413  0.44317656  0.88822435     0.13700
C1176       C  0.92761717  0.40968249  0.88785974    -0.20700
C1177       C  0.95661058  0.40773863  0.87189107    -0.07200
C1178       C  0.98702635  0.44137408  0.85835436     0.13700
C1179       C  0.02022311  0.44189917  0.84240632    -0.24000
H1180       H  0.00750909  0.49995786  0.84642498     0.15000
H1181       H  0.90503422  0.38435056  0.89925890     0.15000
C1182       C  0.89476769  0.44349375  0.90649692    -0.24000
H1183       H  0.04114285  0.47058688  0.83303977     0.05200
H1184       H  0.00969781  0.42149970  0.82246072     0.08400
H1185       H  0.03563723  0.43409739  0.85944105     0.08400
H1186       H  0.87448949  0.44549127  0.89042105     0.08400
H1187       H  0.90741354  0.46796800  0.92307759     0.08400
H1188       H  0.87788773  0.41700433  0.92040226     0.05200
C1189       C  0.62700142  0.53595981  0.74208587    -0.20600
C1190       C  0.64889338  0.57057641  0.75820575    -0.07200
C1191       C  0.66797259  0.60499302  0.74103600     0.13700
C1192       C  0.66716348  0.60351053  0.70806264    -0.20700
C1193       C  0.64799408  0.56848542  0.69198122    -0.07200
C1194       C  0.62615612  0.53437666  0.70929078     0.13700
C1195       C  0.60185950  0.49607685  0.69356866    -0.24000
H1196       H  0.61149550  0.50967907  0.75531415     0.15000
H1197       H  0.68331489  0.62968906  0.69483714     0.15000
C1198       C  0.69100013  0.64305232  0.75720541    -0.24000
H1199       H  0.58412612  0.47333980  0.71073264     0.05200
H1200       H  0.62028650  0.48745054  0.68153126     0.08400
H1201       H  0.58212088  0.49750281  0.67641929     0.08400
H1202       H  0.71390195  0.64355886  0.77170228     0.08400
H1203       H  0.67195872  0.64811003  0.77234813     0.08400
H1204       H  0.70484274  0.66687333  0.74016339     0.05200
C1205       C  0.51557528  0.40507257  0.88475622    -0.20600
C1206       C  0.48590375  0.40349073  0.86680562    -0.07200
C1207       C  0.49213320  0.43674848  0.85131154     0.13700
C1208       C  0.52842594  0.47006826  0.85308560    -0.20700
C1209       C  0.55885142  0.47071268  0.86911737    -0.07200
C1210       C  0.55206498  0.43801123  0.88586972     0.13700
C1211       C  0.58294479  0.43720129  0.90476485    -0.24000
H1212       H  0.51066065  0.37974492  0.89698577     0.15000
H1213       H  0.53365196  0.49515388  0.84028552     0.15000
C1214       C  0.46169706  0.43697044  0.83135992    -0.24000
H1215       H  0.57153582  0.41018285  0.91807913     0.05200
H1216       H  0.59550042  0.46110639  0.92188308     0.08400
H1217       H  0.60564979  0.43942039  0.88906626     0.08400
H1218       H  0.43646127  0.43013842  0.84597445     0.08400
H1219       H  0.45299202  0.41572903  0.81214053     0.08400
H1220       H  0.47207180  0.46528331  0.82048409     0.05200
C1221       C  0.79754556  0.58925560  0.83294481    -0.20600
C1222       C  0.76649092  0.56030854  0.84969178    -0.07200
C1223       C  0.77092482  0.53221908  0.86516487     0.13700
C1224       C  0.80626807  0.53423593  0.86363870    -0.20700
C1225       C  0.83743654  0.56348738  0.84725176    -0.07200
C1226       C  0.83286313  0.59125020  0.83142266     0.13700
C1227       C  0.86456341  0.62274423  0.81239160    -0.24000
H1228       H  0.79423199  0.61063157  0.82085807     0.15000
H1229       H  0.80970695  0.51297022  0.87578953     0.15000
C1230       C  0.73909099  0.50030321  0.88377355    -0.24000
H1231       H  0.85501583  0.64046199  0.80038211     0.05200
H1232       H  0.87426291  0.61033071  0.79409732     0.08400
H1233       H  0.88893804  0.64200883  0.82787269     0.08400
H1234       H  0.71439904  0.48207142  0.86818260     0.08400
H1235       H  0.73003296  0.51228479  0.90291169     0.08400
H1236       H  0.74820805  0.48165316  0.89470655     0.05200
loop_ 
_geom_bond_atom_site_label_1 
_geom_bond_atom_site_label_2 
_geom_bond_distance 
_geom_bond_site_symmetry_2 
_ccdc_geom_bond_type 
In1           O3   2.222       .  S
In1           O4   2.264       .  S
In1          O12   2.240       .  S
In1           O6   2.219       .  S
In1           O8   2.232       .  S
In1           O9   2.251       .  S
In1          O10   2.237       .  S
In1          O13   2.240       .  S
C2            O8   1.259       .  A
C2           O10   1.261       .  A
C2         C1222   1.483       .  S
O3           C11   1.259       .  A
O4           C11   1.264       .  A
C5           O12   1.263       .  A
C5            O6   1.259       .  A
C5         C1209   1.477       .  S
C7            O9   1.262       .  A
C7           O13   1.258       .  A
C7          C119   1.464       .  S
C11        C1190   1.481       .  S
In14         O16   2.226       .  S
In14         O17   2.261       .  S
In14         O25   2.260       .  S
In14         O19   2.217       .  S
In14         O21   2.238       .  S
In14         O22   2.275       .  S
In14         O23   2.228       .  S
In14         O26   2.222       .  S
C15          O21   1.262       .  A
C15          O23   1.259       .  A
C15        C1225   1.481       .  S
O16          C24   1.257       .  A
O17          C24   1.265       .  A
C18          O25   1.265       .  A
C18          O19   1.259       .  A
C18        C1174   1.483       .  S
C20          O22   1.265       .  A
C20          O26   1.259       .  A
C20        C1158   1.487       .  S
C24          C50   1.464       .  S
In27         O29   2.237       .  S
In27         O30   2.257       .  S
In27         O38   2.252       .  S
In27         O32   2.244   1_565  S
In27         O34   2.250   1_556  S
In27         O35   2.254       .  S
In27         O36   2.249       .  S
In27         O39   2.245   1_565  S
C28          O34   1.258       .  A
C28          O36   1.262   1_554  A
C28          C59   1.465       .  S
O29          C37   1.259       .  A
O30          C37   1.261       .  A
C31          O38   1.260   1_545  A
C31          O32   1.257       .  A
C31        C1142   1.489       .  S
C33          O35   1.259       .  A
C33          O39   1.260   1_565  A
C33          C98   1.464       .  S
C37        C1126   1.484       .  S
In40         O42   2.244       .  S
In40         O43   2.255   1_655  S
In40         O51   2.252       .  S
In40         O45   2.263       .  S
In40         O47   2.259   1_556  S
In40         O48   2.246   1_655  S
In40         O49   2.238   1_655  S
In40         O52   2.257   1_655  S
C41          O47   1.259   1_455  A
C41          O49   1.260   1_554  A
C41          C76   1.463       .  S
O42          C50   1.261       .  A
O43          C50   1.258   1_455  A
C44          O51   1.257       .  A
C44          O45   1.259       .  A
C44        C1110   1.493       .  S
C46          O48   1.257       .  A
C46          O52   1.260       .  A
C46        C1129   1.487       .  S
In53         O55   2.218       .  S
In53         O56   2.271       .  S
In53         O64   2.251       .  S
In53         O58   2.215       .  S
In53         O60   2.236       .  S
In53         O61   2.259       .  S
In53         O62   2.244       .  S
In53         O65   2.235       .  S
C54          O60   1.259       .  A
C54          O62   1.261       .  A
C54        C1094   1.484       .  S
O55          C63   1.258       .  A
O56          C63   1.266       .  A
C57          O64   1.264       .  A
C57          O58   1.262       .  A
C57        C1081   1.483       .  S
C59          O61   1.264       .  A
C59          O65   1.257       .  A
C63        C1062   1.486       .  S
In66         O68   2.226       .  S
In66         O69   2.256       .  S
In66         O77   2.251       .  S
In66         O71   2.222       .  S
In66         O73   2.241       .  S
In66         O74   2.272       .  S
In66         O75   2.234       .  S
In66         O78   2.204       .  S
C67          O73   1.263       .  A
C67          O75   1.261       .  A
C67        C1097   1.485       .  S
O68          C76   1.258       .  A
O69          C76   1.264       .  A
C70          O77   1.262       .  A
C70          O71   1.261       .  A
C70        C1046   1.482       .  S
C72          O74   1.266       .  A
C72          O78   1.257       .  A
C72        C1030   1.483       .  S
In79         O81   2.226       .  S
In79         O82   2.252       .  S
In79         O90   2.242       .  S
In79         O84   2.209       .  S
In79         O86   2.246       .  S
In79         O87   2.265       .  S
In79         O88   2.232       .  S
In79         O91   2.213       .  S
C80          O86   1.260       .  A
C80          O88   1.258       .  A
C80        C1014   1.485       .  S
O81          C89   1.256       .  A
O82          C89   1.262       .  A
C83          O90   1.264       .  A
C83          O84   1.261       .  A
C83        C1206   1.477       .  S
C85          O87   1.264       .  A
C85          O91   1.260       .  A
C85         C998   1.482       .  S
C89         C115   1.457       .  S
In92         O94   2.216       .  S
In92         O95   2.275   1_545  S
In92        O103   2.246   1_545  S
In92         O97   2.225       .  S
In92         O99   2.240       .  S
In92        O100   2.258   1_545  S
In92        O101   2.238       .  S
In92        O104   2.233       .  S
C93          O99   1.260       .  A
C93         O101   1.262       .  A
C93        C1017   1.487       .  S
O94         C102   1.258       .  A
O95         C102   1.266   1_565  A
C96         O103   1.262   1_545  A
C96          O97   1.262       .  A
C96         C982   1.484       .  S
C98         O100   1.264       .  A
C98         O104   1.258   1_565  A
C102        C969   1.483       .  S
In105       O107   2.239       .  S
In105       O108   2.248       .  S
In105       O116   2.259       .  S
In105       O110   2.242       .  S
In105       O112   2.251   1_556  S
In105       O113   2.225       .  S
In105       O114   2.230       .  S
In105       O117   2.257       .  S
C106        O112   1.260       .  A
C106        O114   1.260   1_554  A
C106        C154   1.459       .  S
O107        C115   1.258       .  A
O108        C115   1.257       .  A
C109        O116   1.260       .  A
C109        O110   1.259       .  A
C109       C1145   1.491       .  S
C111        O113   1.257       .  A
C111        O117   1.263       .  A
C111        C950   1.483       .  S
In118       O120   2.261       .  S
In118       O121   2.251       .  S
In118       O129   2.257       .  S
In118       O123   2.248       .  S
In118       O125   2.251       .  S
In118       O126   2.253   1_556  S
In118       O127   2.253       .  S
In118       O130   2.243       .  S
C119        O125   1.258       .  A
C119        O127   1.259       .  A
O120        C128   1.260       .  A
O121        C128   1.257       .  A
C122        O129   1.261       .  A
C122        O123   1.258       .  A
C122        C934   1.493       .  S
C124        O126   1.260       .  A
C124        O130   1.261   1_554  A
C124        C176   1.465       .  S
C128       C1113   1.489       .  S
In131       O133   2.205       .  S
In131       O134   2.262       .  S
In131       O142   2.253       .  S
In131       O136   2.208       .  S
In131       O138   2.234       .  S
In131       O139   2.249       .  S
In131       O140   2.230       .  S
In131       O143   2.227       .  S
C132        O138   1.260       .  A
C132        O140   1.261       .  A
C132        C921   1.481       .  S
O133        C141   1.257       .  A
O134        C141   1.265       .  A
C135        O142   1.264       .  A
C135        O136   1.259       .  A
C135       C1049   1.478       .  S
C137        O139   1.263       .  A
C137        O143   1.258       .  A
C137        C202   1.459       .  S
C141        C905   1.477       .  S
In144       O146   2.223       .  S
In144       O147   2.258       .  S
In144       O155   2.244       .  S
In144       O149   2.217       .  S
In144       O151   2.230       .  S
In144       O152   2.272       .  S
In144       O153   2.228       .  S
In144       O156   2.210       .  S
C145        O151   1.261       .  A
C145        O153   1.260       .  A
C145        C918   1.480       .  S
O146        C154   1.257       .  A
O147        C154   1.263       .  A
C148        O155   1.264       .  A
C148        O149   1.259       .  A
C148        C889   1.475       .  S
C150        O152   1.266       .  A
C150        O156   1.257       .  A
C150        C873   1.487       .  S
In157       O159   2.231       .  S
In157       O160   2.266       .  S
In157       O168   2.255       .  S
In157       O162   2.223       .  S
In157       O164   2.245       .  S
In157       O165   2.275       .  S
In157       O166   2.222       .  S
In157       O169   2.210       .  S
C158        O164   1.263       .  A
C158        O166   1.259       .  A
C158        C854   1.478       .  S
O159        C167   1.258       .  A
O160        C167   1.265       .  A
C161        O168   1.265       .  A
C161        O162   1.260       .  A
C161       C1078   1.488       .  S
C163        O165   1.268       .  A
C163        O169   1.257       .  A
C163        C838   1.490       .  S
C167        C193   1.468       .  S
In170       O172   2.220       .  S
In170       O173   2.277       .  S
In170       O181   2.238       .  S
In170       O175   2.222       .  S
In170       O177   2.235       .  S
In170       O178   2.258       .  S
In170       O179   2.232       .  S
In170       O182   2.236       .  S
C171        O177   1.259       .  A
C171        O179   1.262       .  A
C171        C857   1.479       .  S
O172        C180   1.259       .  A
O173        C180   1.264       .  A
C174        O181   1.262       .  A
C174        O175   1.260       .  A
C174        C886   1.479       .  S
C176        O178   1.263       .  A
C176        O182   1.258       .  A
C180        C822   1.486       .  S
In183       O185   2.244       .  S
In183       O186   2.265   1_556  S
In183       O194   2.254       .  S
In183       O188   2.260       .  S
In183       O190   2.263       .  S
In183       O191   2.247   1_565  S
In183       O192   2.243       .  S
In183       O195   2.259       .  S
C184        O190   1.260       .  A
C184        O192   1.260       .  A
C184        C232   1.467       .  S
O185        C193   1.260   1_556  A
O186        C193   1.260       .  A
C187        O194   1.259       .  A
C187        O188   1.261       .  A
C187        C937   1.494       .  S
C189        O191   1.258       .  A
C189        O195   1.261   1_545  A
C189        C806   1.491       .  S
In196       O198   2.255   1_455  S
In196       O199   2.243   1_455  S
In196       O207   2.250       .  S
In196       O201   2.242       .  S
In196       O203   2.257       .  S
In196       O204   2.247   1_456  S
In196       O205   2.238   1_455  S
In196       O208   2.236       .  S
C197        O203   1.260   1_655  A
C197        O205   1.259       .  A
C197        C215   1.463       .  S
O198        C206   1.260       .  A
O199        C206   1.259       .  A
C200        O207   1.259       .  A
C200        O201   1.260       .  A
C200        C953   1.483       .  S
C202        O204   1.259   1_455  A
C202        O208   1.260   1_554  A
C206        C809   1.488       .  S
In209       O211   2.224       .  S
In209       O212   2.279       .  S
In209       O220   2.249       .  S
In209       O214   2.230       .  S
In209       O216   2.243       .  S
In209       O217   2.255       .  S
In209       O218   2.230       .  S
In209       O221   2.230       .  S
C210        O216   1.262       .  A
C210        O218   1.259       .  A
C210        C790   1.483       .  S
O211        C219   1.258       .  A
O212        C219   1.265       .  A
C213        O220   1.263       .  A
C213        O214   1.262       .  A
C213       C1177   1.484       .  S
C215        O217   1.263       .  A
C215        O221   1.259       .  A
C219        C774   1.488       .  S
In222       O224   2.238       .  S
In222       O225   2.267   1_545  S
In222       O233   2.261   1_545  S
In222       O227   2.220       .  S
In222       O229   2.237       .  S
In222       O230   2.278   1_545  S
In222       O231   2.236       .  S
In222       O234   2.226       .  S
C223        O229   1.259       .  A
C223        O231   1.261       .  A
C223        C793   1.479       .  S
O224        C232   1.257   1_545  A
O225        C232   1.262       .  A
C226        O233   1.265   1_545  A
C226        O227   1.258       .  A
C226        C985   1.483       .  S
C228        O230   1.265   1_545  A
C228        O234   1.259       .  A
C228        C758   1.491       .  S
In235       O237   2.212       .  S
In235       O238   2.272       .  S
In235       O246   2.248       .  S
In235       O240   2.221       .  S
In235       O242   2.229       .  S
In235       O243   2.257       .  S
In235       O244   2.232       .  S
In235       O247   2.220       .  S
C236        O242   1.261       .  A
C236        O244   1.262       .  A
C236        C742   1.481       .  S
O237        C245   1.258       .  A
O238        C245   1.267       .  A
C239        O246   1.263       .  A
C239        O240   1.262       .  A
C239        C726   1.485       .  S
C241        O243   1.266       .  A
C241        O247   1.258       .  A
C241        C280   1.462       .  S
C245       C1161   1.484       .  S
In248       O250   2.228       .  S
In248       O251   2.257       .  S
In248       O259   2.252       .  S
In248       O253   2.219       .  S
In248       O255   2.234       .  S
In248       O256   2.271       .  S
In248       O257   2.234       .  S
In248       O260   2.218       .  S
C249        O255   1.262       .  A
C249        O257   1.260       .  A
C249        C745   1.480       .  S
O250        C258   1.258       .  A
O251        C258   1.265       .  A
C252        O259   1.264       .  A
C252        O253   1.260       .  A
C252        C713   1.480       .  S
C254        O256   1.266       .  A
C254        O260   1.258       .  A
C254       C1193   1.484       .  S
C258        C314   1.464       .  S
In261       O263   2.257       .  S
In261       O264   2.270       .  S
In261       O272   2.272       .  S
In261       O266   2.243   1_565  S
In261       O268   2.262       .  S
In261       O269   2.258       .  S
In261       O270   2.249       .  S
In261       O273   2.255       .  S
C262        O268   1.259       .  A
C262        O270   1.260       .  A
C262        C297   1.468       .  S
O263        C271   1.261       .  A
O264        C271   1.260       .  A
C265        O272   1.261   1_545  A
C265        O266   1.258       .  A
C265        C694   1.490       .  S
C267        O269   1.261       .  A
C267        O273   1.258       .  A
C267        C681   1.488       .  S
C271        C427   1.474       .  S
In274       O276   2.263   1_655  S
In274       O277   2.235   1_655  S
In274       O285   2.263       .  S
In274       O279   2.253       .  S
In274       O281   2.255       .  S
In274       O282   2.259   1_655  S
In274       O283   2.251   1_655  S
In274       O286   2.241       .  S
C275        O281   1.259   1_455  A
C275        O283   1.260       .  A
C275        C306   1.465       .  S
O276        C284   1.263       .  A
O277        C284   1.258       .  A
C278        O285   1.260       .  A
C278        O279   1.257       .  A
C278        C662   1.491       .  S
C280        O282   1.257   1_655  A
C280        O286   1.259       .  A
C284        C678   1.489       .  S
In287       O289   2.240       .  S
In287       O290   2.266       .  S
In287       O298   2.246       .  S
In287       O292   2.223       .  S
In287       O294   2.241       .  S
In287       O295   2.264       .  S
In287       O296   2.242       .  S
In287       O299   2.226       .  S
C288        O294   1.259       .  A
C288        O296   1.261       .  A
C288        C649   1.487       .  S
O289        C297   1.257       .  A
O290        C297   1.263       .  A
C291        O298   1.262       .  A
C291        O292   1.261       .  A
C291        C630   1.483       .  S
C293        O295   1.265       .  A
C293        O299   1.260       .  A
C293       C1065   1.487       .  S
In300       O302   2.219       .  S
In300       O303   2.271       .  S
In300       O311   2.253       .  S
In300       O305   2.224       .  S
In300       O307   2.242       .  S
In300       O308   2.256       .  S
In300       O309   2.234       .  S
In300       O312   2.240       .  S
C301        O307   1.261       .  A
C301        O309   1.259       .  A
C301        C646   1.485       .  S
O302        C310   1.260       .  A
O303        C310   1.264       .  A
C304        O311   1.263       .  A
C304        O305   1.261       .  A
C304        C617   1.484       .  S
C306        O308   1.262       .  A
C306        O312   1.258       .  A
C310       C1033   1.485       .  S
In313       O315   2.251       .  S
In313       O316   2.250       .  S
In313       O324   2.261       .  S
In313       O318   2.250       .  S
In313       O320   2.258       .  S
In313       O321   2.245       .  S
In313       O322   2.242       .  S
In313       O325   2.262       .  S
C314        O320   1.259       .  A
C314        O322   1.260       .  A
O315        C323   1.260       .  A
O316        C323   1.258       .  A
C317        O324   1.262       .  A
C317        O318   1.259       .  A
C317        C598   1.493       .  S
C319        O321   1.259       .  A
C319        O325   1.261       .  A
C319        C665   1.493       .  S
C323        C401   1.464       .  S
In326       O328   2.246       .  S
In326       O329   2.261   1_455  S
In326       O337   2.262       .  S
In326       O331   2.238       .  S
In326       O333   2.255       .  S
In326       O334   2.229   1_455  S
In326       O335   2.243   1_455  S
In326       O338   2.268   1_455  S
C327        O333   1.259   1_655  A
C327        O335   1.260       .  A
C327        C349   1.465       .  S
O328        C336   1.259       .  A
O329        C336   1.258   1_655  A
C330        O337   1.261       .  A
C330        O331   1.257       .  A
C330        C566   1.490       .  S
C332        O334   1.258       .  A
C332        O338   1.263       .  A
C332        C582   1.490       .  S
C336        C453   1.465       .  S
In339       O341   2.235       .  S
In339       O342   2.261       .  S
In339       O350   2.261       .  S
In339       O344   2.213       .  S
In339       O346   2.244       .  S
In339       O347   2.282       .  S
In339       O348   2.233       .  S
In339       O351   2.216       .  S
C340        O346   1.259       .  A
C340        O348   1.260       .  A
C340        C550   1.485       .  S
O341        C349   1.257       .  A
O342        C349   1.263       .  A
C343        O350   1.265       .  A
C343        O344   1.258       .  A
C343        C729   1.486       .  S
C345        O347   1.265       .  A
C345        O351   1.259       .  A
C345        C777   1.490       .  S
In352       O354   2.214       .  S
In352       O355   2.285   1_545  S
In352       O363   2.262   1_545  S
In352       O357   2.232       .  S
In352       O359   2.228       .  S
In352       O360   2.271   1_545  S
In352       O361   2.242       .  S
In352       O364   2.229       .  S
C353        O359   1.262       .  A
C353        O361   1.261       .  A
C353        C553   1.484       .  S
O354        C362   1.257       .  A
O355        C362   1.267   1_565  A
C356        O363   1.264   1_545  A
C356        O357   1.259       .  A
C356        C537   1.490       .  S
C358        O360   1.264       .  A
C358        O364   1.257   1_565  A
C358        C366   1.466       .  S
C362        C761   1.490       .  S
In365       O367   2.261       .  S
In365       O368   2.244   1_565  S
In365       O376   2.261       .  S
In365       O370   2.251       .  S
In365       O372   2.263       .  S
In365       O373   2.262       .  S
In365       O374   2.237       .  S
In365       O377   2.239       .  S
C366        O372   1.260       .  A
C366        O374   1.260       .  A
O367        C375   1.261   1_565  A
O368        C375   1.260       .  A
C369        O376   1.260       .  A
C369        O370   1.260       .  A
C369        C601   1.492       .  S
C371        O373   1.260       .  A
C371        O377   1.260       .  A
C371        C384   1.465       .  S
C375        C585   1.487       .  S
In378       O380   2.217       .  S
In378       O381   2.273       .  S
In378       O389   2.256       .  S
In378       O383   2.223       .  S
In378       O385   2.240       .  S
In378       O386   2.262       .  S
In378       O387   2.228       .  S
In378       O390   2.225       .  S
C379        O385   1.263       .  A
C379        O387   1.260       .  A
C379        C518   1.486       .  S
O380        C388   1.259       .  A
O381        C388   1.266       .  A
C382        O389   1.264       .  A
C382        O383   1.259       .  A
C382        C633   1.484       .  S
C384        O386   1.265       .  A
C384        O390   1.258       .  A
C388        C841   1.490       .  S
In391       O393   2.237       .  S
In391       O394   2.252       .  S
In391       O402   2.251       .  S
In391       O396   2.217       .  S
In391       O398   2.244       .  S
In391       O399   2.278       .  S
In391       O400   2.230       .  S
In391       O403   2.209       .  S
C392        O398   1.261       .  A
C392        O400   1.261       .  A
C392        C521   1.486       .  S
O393        C401   1.258       .  A
O394        C401   1.263       .  A
C395        O402   1.264       .  A
C395        O396   1.260       .  A
C395        C502   1.479       .  S
C397        O399   1.266       .  A
C397        O403   1.257       .  A
C397        C825   1.485       .  S
In404       O406   2.212       .  S
In404       O407   2.271       .  S
In404       O415   2.251       .  S
In404       O409   2.220       .  S
In404       O411   2.244       .  S
In404       O412   2.252       .  S
In404       O413   2.241       .  S
In404       O416   2.240       .  S
C405        O411   1.260       .  A
C405        O413   1.261       .  A
C405        C486   1.489       .  S
O406        C414   1.258       .  A
O407        C414   1.266       .  A
C408        O415   1.262       .  A
C408        O409   1.262       .  A
C408        C710   1.479       .  S
C410        O412   1.263       .  A
C410        O416   1.258       .  A
C410        C431   1.465       .  S
C414       C1001   1.486       .  S
In417       O419   2.248       .  S
In417       O420   2.272   1_545  S
In417       O428   2.257   1_545  S
In417       O422   2.240       .  S
In417       O424   2.249       .  S
In417       O425   2.269   1_545  S
In417       O426   2.235       .  S
In417       O429   2.232       .  S
C418        O424   1.263       .  A
C418        O426   1.259       .  A
C418        C489   1.489       .  S
O419        C427   1.259   1_545  A
O420        C427   1.264       .  A
C421        O428   1.263   1_545  A
C421        O422   1.262       .  A
C421        C534   1.491       .  S
C423        O425   1.265   1_545  A
C423        O429   1.260       .  A
C423        C966   1.487       .  S
In430       O432   2.256       .  S
In430       O433   2.249       .  S
In430       O441   2.259       .  S
In430       O435   2.237       .  S
In430       O437   2.248       .  S
In430       O438   2.261       .  S
In430       O439   2.252       .  S
In430       O442   2.242       .  S
C431        O437   1.258       .  A
C431        O439   1.261       .  A
O432        C440   1.260       .  A
O433        C440   1.261       .  A
C434        O441   1.260       .  A
C434        O435   1.259       .  A
C434        C569   1.491       .  S
C436        O438   1.260       .  A
C436        O442   1.259       .  A
C436        C462   1.465       .  S
C440        C697   1.488       .  S
In443       O445   2.230       .  S
In443       O446   2.262       .  S
In443       O454   2.247       .  S
In443       O448   2.223       .  S
In443       O450   2.233       .  S
In443       O451   2.267       .  S
In443       O452   2.231       .  S
In443       O455   2.212       .  S
C444        O450   1.262       .  A
C444        O452   1.259       .  A
C444        C470   1.483       .  S
O445        C453   1.257       .  A
O446        C453   1.264       .  A
C447        O454   1.265       .  A
C447        O448   1.260       .  A
C447        C614   1.486       .  S
C449        O451   1.266       .  A
C449        O455   1.259       .  A
C449        C902   1.479       .  S
In456       O458   2.221       .  S
In456       O459   2.268       .  S
In456       O467   2.245       .  S
In456       O461   2.224       .  S
In456       O463   2.236       .  S
In456       O464   2.262       .  S
In456       O465   2.236       .  S
In456       O468   2.232       .  S
C457        O463   1.260       .  A
C457        O465   1.261       .  A
C457        C473   1.483       .  S
O458        C466   1.260       .  A
O459        C466   1.265       .  A
C460        O467   1.262       .  A
C460        O461   1.261       .  A
C460        C505   1.478       .  S
C462        O464   1.263       .  A
C462        O468   1.257       .  A
C466        C870   1.486       .  S
C469        C470   1.405       .  A
C469        C474   1.402       .  A
C469        H476   1.084       .  S
C470        C471   1.418       .  A
C471        C472   1.402       .  A
C471        C478   1.509       .  S
C472        C473   1.404       .  A
C472        H477   1.084       .  S
C473        C474   1.417       .  A
C474        C475   1.508       .  S
C475        H479   1.111       .  S
C475        H480   1.110       .  S
C475        H481   1.110       .  S
C478        H482   1.110       .  S
C478        H483   1.110       .  S
C478        H484   1.111       .  S
C485        C486   1.405       .  A
C485        C490   1.403       .  A
C485        H492   1.084       .  S
C486        C487   1.418       .  A
C487        C488   1.405       .  A
C487        C494   1.508       .  S
C488        C489   1.405       .  A
C488        H493   1.084       .  S
C489        C490   1.419       .  A
C490        C491   1.509       .  S
C491        H495   1.111       .  S
C491        H496   1.110       .  S
C491        H497   1.110       .  S
C494        H498   1.110       .  S
C494        H499   1.110       .  S
C494        H500   1.111       .  S
C501        C502   1.404       .  A
C501        C506   1.405       .  A
C501        H508   1.084       .  S
C502        C503   1.415       .  A
C503        C504   1.401       .  A
C503        C510   1.509       .  S
C504        C505   1.402       .  A
C504        H509   1.084       .  S
C505        C506   1.415       .  A
C506        C507   1.507       .  S
C507        H511   1.111       .  S
C507        H512   1.111       .  S
C507        H513   1.110       .  S
C510        H514   1.109       .  S
C510        H515   1.111       .  S
C510        H516   1.111       .  S
C517        C518   1.405       .  A
C517        C522   1.404       .  A
C517        H524   1.084       .  S
C518        C519   1.418       .  A
C519        C520   1.401       .  A
C519        C526   1.509       .  S
C520        C521   1.404       .  A
C520        H525   1.084       .  S
C521        C522   1.418       .  A
C522        C523   1.508       .  S
C523        H527   1.111       .  S
C523        H528   1.110       .  S
C523        H529   1.110       .  S
C526        H530   1.110       .  S
C526        H531   1.110       .  S
C526        H532   1.111       .  S
C533        C534   1.405       .  A
C533        C538   1.405       .  A
C533        H540   1.084       .  S
C534        C535   1.418   1_545  A
C535        C536   1.407       .  A
C535        C542   1.507       .  S
C536        C537   1.405   1_565  A
C536        H541   1.084       .  S
C537        C538   1.418       .  A
C538        C539   1.509       .  S
C539        H543   1.111       .  S
C539        H544   1.111       .  S
C539        H545   1.109       .  S
C542        H546   1.110       .  S
C542        H547   1.110       .  S
C542        H548   1.111       .  S
C549        C550   1.405       .  A
C549        C554   1.401       .  A
C549        H556   1.084       .  S
C550        C551   1.417       .  A
C551        C552   1.402       .  A
C551        C558   1.509       .  S
C552        C553   1.406       .  A
C552        H557   1.084       .  S
C553        C554   1.417       .  A
C554        C555   1.508       .  S
C555        H559   1.111       .  S
C555        H560   1.110       .  S
C555        H561   1.110       .  S
C558        H562   1.110       .  S
C558        H563   1.110       .  S
C558        H564   1.111       .  S
C565        C566   1.406       .  A
C565        C570   1.407       .  A
C565        H572   1.084       .  S
C566        C567   1.418       .  A
C567        C568   1.403       .  A
C567        C574   1.509       .  S
C568        C569   1.405       .  A
C568        H573   1.084       .  S
C569        C570   1.418       .  A
C570        C571   1.507       .  S
C571        H575   1.111       .  S
C571        H576   1.110       .  S
C571        H577   1.110       .  S
C574        H578   1.110       .  S
C574        H579   1.110       .  S
C574        H580   1.111       .  S
C581        C582   1.407       .  A
C581        C586   1.409       .  A
C581        H588   1.084       .  S
C582        C583   1.419       .  A
C583        C584   1.403       .  A
C583        C590   1.509       .  S
C584        C585   1.403       .  A
C584        H589   1.084       .  S
C585        C586   1.417       .  A
C586        C587   1.508       .  S
C587        H591   1.111       .  S
C587        H592   1.110       .  S
C587        H593   1.111       .  S
C590        H594   1.110       .  S
C590        H595   1.110       .  S
C590        H596   1.111       .  S
C597        C598   1.406       .  A
C597        C602   1.407       .  A
C597        H604   1.084       .  S
C598        C599   1.419       .  A
C599        C600   1.407       .  A
C599        C606   1.508       .  S
C600        C601   1.405       .  A
C600        H605   1.084       .  S
C601        C602   1.417       .  A
C602        C603   1.507       .  S
C603        H607   1.111       .  S
C603        H608   1.109       .  S
C603        H609   1.110       .  S
C606        H610   1.110       .  S
C606        H611   1.110       .  S
C606        H612   1.111       .  S
C613        C614   1.406       .  A
C613        C618   1.405       .  A
C613        H620   1.084   1_455  S
C614        C615   1.418       .  A
C615        C616   1.402       .  A
C615        C622   1.509       .  S
C616        C617   1.404       .  A
C616        H621   1.084       .  S
C617        C618   1.416       .  A
C618        C619   1.507   1_455  S
C619        H623   1.111       .  S
C619        H624   1.111       .  S
C619        H625   1.110       .  S
C622        H626   1.110       .  S
C622        H627   1.110       .  S
C622        H628   1.111       .  S
C629        C630   1.403       .  A
C629        C634   1.401       .  A
C629        H636   1.084       .  S
C630        C631   1.417       .  A
C631        C632   1.406       .  A
C631        C638   1.508       .  S
C632        C633   1.405       .  A
C632        H637   1.084       .  S
C633        C634   1.417       .  A
C634        C635   1.509       .  S
C635        H639   1.111       .  S
C635        H640   1.110       .  S
C635        H641   1.109       .  S
C638        H642   1.110       .  S
C638        H643   1.111       .  S
C638        H644   1.111       .  S
C645        C646   1.405       .  A
C645        C650   1.404       .  A
C645        H652   1.084       .  S
C646        C647   1.417       .  A
C647        C648   1.402       .  A
C647        C654   1.509       .  S
C648        C649   1.405       .  A
C648        H653   1.084       .  S
C649        C650   1.418       .  A
C650        C651   1.508       .  S
C651        H655   1.111       .  S
C651        H656   1.110       .  S
C651        H657   1.110       .  S
C654        H658   1.111       .  S
C654        H659   1.110       .  S
C654        H660   1.111       .  S
C661        C662   1.406       .  A
C661        C666   1.407       .  A
C661        H668   1.084       .  S
C662        C663   1.418       .  A
C663        C664   1.406       .  A
C663        C670   1.508       .  S
C664        C665   1.407       .  A
C664        H669   1.084       .  S
C665        C666   1.418       .  A
C666        C667   1.507       .  S
C667        H671   1.111       .  S
C667        H672   1.110       .  S
C667        H673   1.110       .  S
C670        H674   1.110       .  S
C670        H675   1.110       .  S
C670        H676   1.111       .  S
C677        C678   1.405       .  A
C677        C682   1.407       .  A
C677        H684   1.084       .  S
C678        C679   1.419       .  A
C679        C680   1.405       .  A
C679        C686   1.508       .  S
C680        C681   1.403       .  A
C680        H685   1.084       .  S
C681        C682   1.418       .  A
C682        C683   1.508       .  S
C683        H687   1.111       .  S
C683        H688   1.111       .  S
C683        H689   1.110       .  S
C686        H690   1.110       .  S
C686        H691   1.110       .  S
C686        H692   1.111       .  S
C693        C694   1.406       .  A
C693        C698   1.408       .  A
C693        H700   1.084       .  S
C694        C695   1.418       .  A
C695        C696   1.405       .  A
C695        C702   1.508       .  S
C696        C697   1.403       .  A
C696        H701   1.085       .  S
C697        C698   1.418       .  A
C698        C699   1.508       .  S
C699        H703   1.111       .  S
C699        H704   1.110       .  S
C699        H705   1.111       .  S
C702        H706   1.111       .  S
C702        H707   1.109       .  S
C702        H708   1.111       .  S
C709        C710   1.402       .  A
C709        C714   1.400       .  A
C709        H716   1.084       .  S
C710        C711   1.416       .  A
C711        C712   1.406       .  A
C711        C718   1.507       .  S
C712        C713   1.405       .  A
C712        H717   1.084       .  S
C713        C714   1.415       .  A
C714        C715   1.508       .  S
C715        H719   1.111       .  S
C715        H720   1.109       .  S
C715        H721   1.110       .  S
C718        H722   1.109       .  S
C718        H723   1.110       .  S
C718        H724   1.111       .  S
C725        C726   1.403       .  A
C725        C730   1.401       .  A
C725        H732   1.084       .  S
C726        C727   1.417       .  A
C727        C728   1.406       .  A
C727        C734   1.507   1_655  S
C728        C729   1.405       .  A
C728        H733   1.084   1_655  S
C729        C730   1.419       .  A
C730        C731   1.510       .  S
C731        H735   1.111       .  S
C731        H736   1.110       .  S
C731        H737   1.110       .  S
C734        H738   1.110       .  S
C734        H739   1.110       .  S
C734        H740   1.111       .  S
C741        C742   1.405       .  A
C741        C746   1.402       .  A
C741        H748   1.084       .  S
C742        C743   1.416       .  A
C743        C744   1.402       .  A
C743        C750   1.508       .  S
C744        C745   1.404       .  A
C744        H749   1.084       .  S
C745        C746   1.416       .  A
C746        C747   1.509       .  S
C747        H751   1.111       .  S
C747        H752   1.110       .  S
C747        H753   1.111       .  S
C750        H754   1.110       .  S
C750        H755   1.110       .  S
C750        H756   1.111       .  S
C757        C758   1.403       .  A
C757        C762   1.401       .  A
C757        H764   1.084       .  S
C758        C759   1.418   1_545  A
C759        C760   1.413       .  A
C759        C766   1.506       .  S
C760        C761   1.407   1_565  A
C760        H765   1.084       .  S
C761        C762   1.418       .  A
C762        C763   1.510       .  S
C763        H767   1.111       .  S
C763        H768   1.111       .  S
C763        H769   1.109       .  S
C766        H770   1.110       .  S
C766        H771   1.110       .  S
C766        H772   1.111       .  S
C773        C774   1.407       .  A
C773        C778   1.413       .  A
C773        H780   1.084       .  S
C774        C775   1.416       .  A
C775        C776   1.400       .  A
C775        C782   1.510       .  S
C776        C777   1.403       .  A
C776        H781   1.084       .  S
C777        C778   1.418       .  A
C778        C779   1.506   1_655  S
C779        H783   1.111       .  S
C779        H784   1.110       .  S
C779        H785   1.110   1_455  S
C782        H786   1.111       .  S
C782        H787   1.109       .  S
C782        H788   1.111       .  S
C789        C790   1.405       .  A
C789        C794   1.403       .  A
C789        H796   1.084       .  S
C790        C791   1.418       .  A
C791        C792   1.401       .  A
C791        C798   1.508       .  S
C792        C793   1.402       .  A
C792        H797   1.084       .  S
C793        C794   1.416       .  A
C794        C795   1.508       .  S
C795        H799   1.111       .  S
C795        H800   1.110       .  S
C795        H801   1.111       .  S
C798        H802   1.110       .  S
C798        H803   1.110       .  S
C798        H804   1.111       .  S
C805        C806   1.406       .  A
C805        C810   1.406       .  A
C805        H812   1.084       .  S
C806        C807   1.418   1_556  A
C807        C808   1.405       .  A
C807        C814   1.508       .  S
C808        C809   1.405   1_554  A
C808        H813   1.084       .  S
C809        C810   1.417       .  A
C810        C811   1.508       .  S
C811        H815   1.111       .  S
C811        H816   1.110       .  S
C811        H817   1.110       .  S
C814        H818   1.110       .  S
C814        H819   1.110       .  S
C814        H820   1.111       .  S
C821        C822   1.403       .  A
C821        C826   1.399       .  A
C821        H828   1.084       .  S
C822        C823   1.416       .  A
C823        C824   1.411       .  A
C823        C830   1.506       .  S
C824        C825   1.406       .  A
C824        H829   1.084       .  S
C825        C826   1.417       .  A
C826        C827   1.510       .  S
C827        H831   1.111       .  S
C827        H832   1.109       .  S
C827        H833   1.111       .  S
C830        H834   1.110       .  S
C830        H835   1.110       .  S
C830        H836   1.111       .  S
C837        C838   1.407       .  A
C837        C842   1.411       .  A
C837        H844   1.084       .  S
C838        C839   1.420       .  A
C839        C840   1.400       .  A
C839        C846   1.511       .  S
C840        C841   1.404       .  A
C840        H845   1.084       .  S
C841        C842   1.417       .  A
C842        C843   1.506       .  S
C843        H847   1.111       .  S
C843        H848   1.110       .  S
C843        H849   1.110       .  S
C846        H850   1.110       .  S
C846        H851   1.111       .  S
C846        H852   1.111       .  S
C853        C854   1.404       .  A
C853        C858   1.404       .  A
C853        H860   1.084       .  S
C854        C855   1.416       .  A
C855        C856   1.399       .  A
C855        C862   1.509       .  S
C856        C857   1.402       .  A
C856        H861   1.084       .  S
C857        C858   1.417       .  A
C858        C859   1.508       .  S
C859        H863   1.111       .  S
C859        H864   1.110       .  S
C859        H865   1.110       .  S
C862        H866   1.109       .  S
C862        H867   1.111       .  S
C862        H868   1.111       .  S
C869        C870   1.403       .  A
C869        C874   1.400       .  A
C869        H876   1.084       .  S
C870        C871   1.416       .  A
C871        C872   1.410       .  A
C871        C878   1.506       .  S
C872        C873   1.407       .  A
C872        H877   1.084       .  S
C873        C874   1.418       .  A
C874        C875   1.510       .  S
C875        H879   1.111       .  S
C875        H880   1.109       .  S
C875        H881   1.111       .  S
C878        H882   1.110       .  S
C878        H883   1.110       .  S
C878        H884   1.111       .  S
C885        C886   1.404       .  A
C885        C890   1.401       .  A
C885        H892   1.084       .  S
C886        C887   1.416       .  A
C887        C888   1.402       .  A
C887        C894   1.508       .  S
C888        C889   1.402       .  A
C888        H893   1.084       .  S
C889        C890   1.414       .  A
C890        C891   1.509       .  S
C891        H895   1.111       .  S
C891        H896   1.109       .  S
C891        H897   1.110       .  S
C894        H898   1.111       .  S
C894        H899   1.110       .  S
C894        H900   1.111       .  S
C901        C902   1.402       .  A
C901        C906   1.399       .  A
C901        H908   1.084       .  S
C902        C903   1.414       .  A
C903        C904   1.407       .  A
C903        C910   1.505       .  S
C904        C905   1.404       .  A
C904        H909   1.084       .  S
C905        C906   1.415       .  A
C906        C907   1.510       .  S
C907        H911   1.111       .  S
C907        H912   1.111       .  S
C907        H913   1.109       .  S
C910        H914   1.110   1_455  S
C910        H915   1.110       .  S
C910        H916   1.111   1_455  S
C917        C918   1.405       .  A
C917        C922   1.402       .  A
C917        H924   1.084       .  S
C918        C919   1.416       .  A
C919        C920   1.400       .  A
C919        C926   1.509       .  S
C920        C921   1.404       .  A
C920        H925   1.084       .  S
C921        C922   1.417       .  A
C922        C923   1.508       .  S
C923        H927   1.111       .  S
C923        H928   1.110       .  S
C923        H929   1.110       .  S
C926        H930   1.110       .  S
C926        H931   1.110       .  S
C926        H932   1.111       .  S
C933        C934   1.405       .  A
C933        C938   1.406       .  A
C933        H940   1.084   1_556  S
C934        C935   1.420       .  A
C935        C936   1.407       .  A
C935        C942   1.508       .  S
C936        C937   1.406       .  A
C936        H941   1.084       .  S
C937        C938   1.418       .  A
C938        C939   1.508   1_556  S
C939        H943   1.111       .  S
C939        H944   1.110       .  S
C939        H945   1.110       .  S
C942        H946   1.110       .  S
C942        H947   1.110       .  S
C942        H948   1.111       .  S
C949        C950   1.404       .  A
C949        C954   1.405       .  A
C949        H956   1.084   1_556  S
C950        C951   1.417       .  A
C951        C952   1.402       .  A
C951        C958   1.509       .  S
C952        C953   1.403       .  A
C952        H957   1.084       .  S
C953        C954   1.417       .  A
C954        C955   1.508   1_556  S
C955        H959   1.111       .  S
C955        H960   1.110       .  S
C955        H961   1.111       .  S
C958        H962   1.110       .  S
C958        H963   1.110       .  S
C958        H964   1.111       .  S
C965        C966   1.404       .  A
C965        C970   1.402       .  A
C965        H972   1.084       .  S
C966        C967   1.417   1_545  A
C967        C968   1.410       .  A
C967        C974   1.506       .  S
C968        C969   1.404   1_565  A
C968        H973   1.084       .  S
C969        C970   1.416       .  A
C970        C971   1.510       .  S
C971        H975   1.111       .  S
C971        H976   1.111       .  S
C971        H977   1.109       .  S
C974        H978   1.110       .  S
C974        H979   1.111       .  S
C974        H980   1.111       .  S
C981        C982   1.403       .  A
C981        C986   1.401       .  A
C981        H988   1.084       .  S
C982        C983   1.417   1_545  A
C983        C984   1.406       .  A
C983        C990   1.507       .  S
C984        C985   1.404   1_565  A
C984        H989   1.084       .  S
C985        C986   1.417       .  A
C986        C987   1.509       .  S
C987        H991   1.111       .  S
C987        H992   1.109       .  S
C987        H993   1.110       .  S
C990        H994   1.110       .  S
C990        H995   1.110       .  S
C990        H996   1.111       .  S
C997        C998   1.401       .  A
C997       C1002   1.399       .  A
C997       H1004   1.084       .  S
C998        C999   1.415       .  A
C999       C1000   1.409       .  A
C999       C1006   1.506       .  S
C1000      C1001   1.407       .  A
C1000      H1005   1.084       .  S
C1001      C1002   1.418       .  A
C1002      C1003   1.510       .  S
C1003      H1007   1.111       .  S
C1003      H1008   1.109       .  S
C1003      H1009   1.109       .  S
C1006      H1010   1.110       .  S
C1006      H1011   1.110       .  S
C1006      H1012   1.111       .  S
C1013      C1014   1.405       .  A
C1013      C1018   1.404       .  A
C1013      H1020   1.084       .  S
C1014      C1015   1.417       .  A
C1015      C1016   1.402       .  A
C1015      C1022   1.509       .  S
C1016      C1017   1.405       .  A
C1016      H1021   1.084       .  S
C1017      C1018   1.418       .  A
C1018      C1019   1.508       .  S
C1019      H1023   1.111       .  S
C1019      H1024   1.110       .  S
C1019      H1025   1.110       .  S
C1022      H1026   1.110       .  S
C1022      H1027   1.111       .  S
C1022      H1028   1.111       .  S
C1029      C1030   1.405       .  A
C1029      C1034   1.410       .  A
C1029      H1036   1.084       .  S
C1030      C1031   1.417       .  A
C1031      C1032   1.399       .  A
C1031      C1038   1.511       .  S
C1032      C1033   1.403       .  A
C1032      H1037   1.084       .  S
C1033      C1034   1.416       .  A
C1034      C1035   1.506   1_455  S
C1035      H1039   1.111       .  S
C1035      H1040   1.110   1_655  S
C1035      H1041   1.110       .  S
C1038      H1042   1.109       .  S
C1038      H1043   1.111       .  S
C1038      H1044   1.111       .  S
C1045      C1046   1.402       .  A
C1045      C1050   1.399       .  A
C1045      H1052   1.084       .  S
C1046      C1047   1.417       .  A
C1047      C1048   1.406       .  A
C1047      C1054   1.507   1_455  S
C1048      C1049   1.404       .  A
C1048      H1053   1.084   1_455  S
C1049      C1050   1.415       .  A
C1050      C1051   1.509       .  S
C1051      H1055   1.111       .  S
C1051      H1056   1.110       .  S
C1051      H1057   1.109       .  S
C1054      H1058   1.110       .  S
C1054      H1059   1.111       .  S
C1054      H1060   1.111       .  S
C1061      C1062   1.405       .  A
C1061      C1066   1.409       .  A
C1061      H1068   1.084       .  S
C1062      C1063   1.418       .  A
C1063      C1064   1.402       .  A
C1063      C1070   1.510       .  S
C1064      C1065   1.404       .  A
C1064      H1069   1.084       .  S
C1065      C1066   1.416       .  A
C1066      C1067   1.506       .  S
C1067      H1071   1.111       .  S
C1067      H1072   1.110       .  S
C1067      H1073   1.110       .  S
C1070      H1074   1.111       .  S
C1070      H1075   1.109       .  S
C1070      H1076   1.111       .  S
C1077      C1078   1.407       .  A
C1077      C1082   1.407       .  A
C1077      H1084   1.084       .  S
C1078      C1079   1.418       .  A
C1079      C1080   1.401       .  A
C1079      C1086   1.509       .  S
C1080      C1081   1.403       .  A
C1080      H1085   1.084       .  S
C1081      C1082   1.416       .  A
C1082      C1083   1.508       .  S
C1083      H1087   1.111       .  S
C1083      H1088   1.110       .  S
C1083      H1089   1.110       .  S
C1086      H1090   1.110       .  S
C1086      H1091   1.110       .  S
C1086      H1092   1.111       .  S
C1093      C1094   1.404       .  A
C1093      C1098   1.403       .  A
C1093      H1100   1.084       .  S
C1094      C1095   1.417       .  A
C1095      C1096   1.403       .  A
C1095      C1102   1.508       .  S
C1096      C1097   1.405       .  A
C1096      H1101   1.084       .  S
C1097      C1098   1.418       .  A
C1098      C1099   1.508       .  S
C1099      H1103   1.111       .  S
C1099      H1104   1.110       .  S
C1099      H1105   1.111       .  S
C1102      H1106   1.111       .  S
C1102      H1107   1.110       .  S
C1102      H1108   1.111       .  S
C1109      C1110   1.407   1_554  A
C1109      C1114   1.407       .  A
C1109      H1116   1.084       .  S
C1110      C1111   1.419       .  A
C1111      C1112   1.406       .  A
C1111      C1118   1.508       .  S
C1112      C1113   1.404       .  A
C1112      H1117   1.084       .  S
C1113      C1114   1.417   1_556  A
C1114      C1115   1.508       .  S
C1115      H1119   1.111       .  S
C1115      H1120   1.109       .  S
C1115      H1121   1.111       .  S
C1118      H1122   1.110       .  S
C1118      H1123   1.110       .  S
C1118      H1124   1.111       .  S
C1125      C1126   1.405       .  A
C1125      C1130   1.407       .  A
C1125      H1132   1.084       .  S
C1126      C1127   1.416   1_556  A
C1127      C1128   1.403   1_554  A
C1127      C1134   1.509       .  S
C1128      C1129   1.404       .  A
C1128      H1133   1.084   1_556  S
C1129      C1130   1.419       .  A
C1130      C1131   1.508       .  S
C1131      H1135   1.111       .  S
C1131      H1136   1.110       .  S
C1131      H1137   1.110       .  S
C1134      H1138   1.109       .  S
C1134      H1139   1.111       .  S
C1134      H1140   1.111       .  S
C1141      C1142   1.405       .  A
C1141      C1146   1.405       .  A
C1141      H1148   1.084       .  S
C1142      C1143   1.418       .  A
C1143      C1144   1.404       .  A
C1143      C1150   1.509   1_556  S
C1144      C1145   1.406       .  A
C1144      H1149   1.084   1_556  S
C1145      C1146   1.418       .  A
C1146      C1147   1.507       .  S
C1147      H1151   1.111       .  S
C1147      H1152   1.110       .  S
C1147      H1153   1.110       .  S
C1150      H1154   1.110       .  S
C1150      H1155   1.110       .  S
C1150      H1156   1.111       .  S
C1157      C1158   1.403       .  A
C1157      C1162   1.400       .  A
C1157      H1164   1.084       .  S
C1158      C1159   1.417       .  A
C1159      C1160   1.410       .  A
C1159      C1166   1.506       .  S
C1160      C1161   1.405       .  A
C1160      H1165   1.084       .  S
C1161      C1162   1.416       .  A
C1162      C1163   1.510       .  S
C1163      H1167   1.111       .  S
C1163      H1168   1.111       .  S
C1163      H1169   1.109       .  S
C1166      H1170   1.110   1_655  S
C1166      H1171   1.111       .  S
C1166      H1172   1.111       .  S
C1173      C1174   1.404       .  A
C1173      C1178   1.406       .  A
C1173      H1180   1.084   1_655  S
C1174      C1175   1.416       .  A
C1175      C1176   1.402       .  A
C1175      C1182   1.509       .  S
C1176      C1177   1.404       .  A
C1176      H1181   1.084       .  S
C1177      C1178   1.417       .  A
C1178      C1179   1.507   1_655  S
C1179      H1183   1.111       .  S
C1179      H1184   1.110       .  S
C1179      H1185   1.110       .  S
C1182      H1186   1.109       .  S
C1182      H1187   1.111       .  S
C1182      H1188   1.111       .  S
C1189      C1190   1.402       .  A
C1189      C1194   1.401       .  A
C1189      H1196   1.085       .  S
C1190      C1191   1.414       .  A
C1191      C1192   1.409       .  A
C1191      C1198   1.506       .  S
C1192      C1193   1.405       .  A
C1192      H1197   1.084       .  S
C1193      C1194   1.417       .  A
C1194      C1195   1.510       .  S
C1195      H1199   1.111       .  S
C1195      H1200   1.109       .  S
C1195      H1201   1.111       .  S
C1198      H1202   1.110       .  S
C1198      H1203   1.110       .  S
C1198      H1204   1.111       .  S
C1205      C1206   1.404       .  A
C1205      C1210   1.399       .  A
C1205      H1212   1.084       .  S
C1206      C1207   1.415       .  A
C1207      C1208   1.403       .  A
C1207      C1214   1.508       .  S
C1208      C1209   1.404       .  A
C1208      H1213   1.084       .  S
C1209      C1210   1.415       .  A
C1210      C1211   1.509       .  S
C1211      H1215   1.111       .  S
C1211      H1216   1.110       .  S
C1211      H1217   1.109       .  S
C1214      H1218   1.110       .  S
C1214      H1219   1.111       .  S
C1214      H1220   1.111       .  S
C1221      C1222   1.405       .  A
C1221      C1226   1.401       .  A
C1221      H1228   1.084       .  S
C1222      C1223   1.418       .  A
C1223      C1224   1.402       .  A
C1223      C1230   1.509       .  S
C1224      C1225   1.404       .  A
C1224      H1229   1.084       .  S
C1225      C1226   1.416       .  A
C1226      C1227   1.509       .  S
C1227      H1231   1.111       .  S
C1227      H1232   1.111       .  S
C1227      H1233   1.110       .  S
C1230      H1234   1.110       .  S
C1230      H1235   1.110       .  S
C1230      H1236   1.111       .  S
