geometry optimzed in LAMMPS
_audit_creation_date              2020-11-30 
_audit_creation_method            'lammps2cif' 
_symmetry_space_group_name_H-M    'P1' 
_symmetry_Int_Tables_number       1 
_symmetry_cell_setting            triclinic 
loop_ 
_symmetry_equiv_pos_as_xyz 
  x,y,z 
_cell_length_a                    33.75298126 
_cell_length_b                    33.807583986977264 
_cell_length_c                    34.73105588213931 
_cell_angle_alpha                 89.68307852469994 
_cell_angle_beta                  90.11551536669123 
_cell_angle_gamma                 91.00523285690049 
loop_ 
_atom_site_label 
_atom_site_type_symbol 
_atom_site_fract_x 
_atom_site_fract_y 
_atom_site_fract_z 
_atom_site_charge 
O1          O  0.67889310  0.73448941  0.37763589    -0.73800
O2          O  0.77807751  0.72166296  0.42980153    -0.73800
O3          O  0.72096274  0.77801029  0.42861599    -0.73900
O4          O  0.73592603  0.67817723  0.37930753    -0.73900
O5          O  0.76784999  0.70902329  0.33124981    -0.73900
O6          O  0.75300924  0.80920031  0.38103512    -0.73800
O7          O  0.80965737  0.75265076  0.38179581    -0.73800
O8          O  0.71072934  0.76622165  0.33005177    -0.73900
Ni9        Ni  0.72735005  0.72700688  0.40554986     1.25400
Ni10       Ni  0.76135435  0.76030990  0.35421849     1.25400
C11         C  0.67852052  0.75407291  0.34598723     0.88400
C12         C  0.81032269  0.73385631  0.41386551     0.88300
C13         C  0.73357493  0.81015990  0.41271394     0.88300
C14         C  0.75563245  0.67712204  0.34792477     0.88500
O15         O  0.82195475  0.23548127  0.36697923    -0.73800
O16         O  0.71869951  0.21971581  0.32272829    -0.73800
O17         O  0.77612120  0.27760068  0.31914958    -0.73900
O18         O  0.76460320  0.17754320  0.37053737    -0.73900
O19         O  0.73622578  0.20750723  0.42027436    -0.73900
O20         O  0.74973846  0.30785581  0.36956970    -0.73800
O21         O  0.69160502  0.25135962  0.37208876    -0.73800
O22         O  0.79441872  0.26468478  0.41760047    -0.73900
Ni23       Ni  0.77129578  0.22650794  0.34304131     1.25400
Ni24       Ni  0.74203658  0.25885388  0.39671956     1.25400
C25         C  0.82505471  0.25350968  0.39918918     0.88400
C26         C  0.68819250  0.23253699  0.34034000     0.88300
C27         C  0.76615980  0.30936277  0.33636183     0.88300
C28         C  0.74744213  0.17604533  0.40333932     0.88500
O29         O  0.21772809  0.27644743  0.42737393    -0.73800
O30         O  0.31803734  0.26320502  0.37877812    -0.73800
O31         O  0.26281709  0.32096119  0.38013474    -0.73900
O32         O  0.27301264  0.21873196  0.42639091    -0.73900
O33         O  0.24148185  0.19043705  0.37695812    -0.73900
O34         O  0.23211481  0.29313493  0.32983948    -0.73800
O35         O  0.28721865  0.23414949  0.32921274    -0.73800
O36         O  0.18674945  0.24880756  0.37728845    -0.73900
Ni37       Ni  0.26895922  0.27078496  0.40494538     1.25400
Ni38       Ni  0.23586992  0.24070317  0.35139745     1.25400
C39         C  0.18570739  0.26598398  0.40999442     0.88400
C40         C  0.31907277  0.24488310  0.34668553     0.88300
C41         C  0.24444710  0.32390159  0.34806258     0.88300
C42         C  0.25993791  0.18770646  0.40913479     0.88500
O43         O  0.24757965  0.69438499  0.36392931    -0.73800
O44         O  0.25965163  0.79396172  0.41464324    -0.73800
O45         O  0.20187881  0.73690365  0.41097595    -0.73900
O46         O  0.30550531  0.75160935  0.36721375    -0.73900
O47         O  0.27850971  0.78194079  0.31674421    -0.73900
O48         O  0.17494465  0.76750593  0.36040930    -0.73800
O49         O  0.23290070  0.82459765  0.36399442    -0.73800
O50         O  0.22040881  0.72449167  0.31341571    -0.73900
Ni51       Ni  0.25458974  0.74314677  0.39098534     1.25400
Ni52       Ni  0.22577044  0.77569825  0.33678459     1.25400
C53         C  0.23090845  0.69276984  0.33081186     0.88400
C54         C  0.24905361  0.82559611  0.39737148     0.88300
C55         C  0.17148608  0.74910495  0.39254563     0.88300
C56         C  0.30919713  0.77023844  0.33511892     0.88500
O57         O  0.23870369  0.69829138  0.16007733    -0.73800
O58         O  0.25358149  0.80345278  0.12035932    -0.73800
O59         O  0.19539734  0.74694439  0.11606032    -0.73900
O60         O  0.29745057  0.75396240  0.16429411    -0.73900
O61         O  0.32554769  0.73041051  0.11117953    -0.73900
O62         O  0.22358321  0.72182706  0.06387273    -0.73800
O63         O  0.28145635  0.77893172  0.06770955    -0.73800
O64         O  0.26731372  0.67330193  0.10787714    -0.73900
Ni65       Ni  0.24537548  0.75157242  0.14209110     1.25400
Ni66       Ni  0.27548378  0.72525956  0.08577047     1.25400
C67         C  0.24964749  0.66862746  0.14027073     0.88400
C68         C  0.27027381  0.80863162  0.08758151     0.88300
C69         C  0.19259904  0.73200256  0.08231815     0.88300
C70         C  0.32825193  0.74398344  0.14538007     0.88500
O71         O  0.74813933  0.68948163  0.13220638    -0.73800
O72         O  0.73514150  0.78945798  0.08224766    -0.73800
O73         O  0.79319794  0.73355785  0.08382138    -0.73900
O74         O  0.69089602  0.74530175  0.13066382    -0.73900
O75         O  0.71986794  0.77667163  0.17982480    -0.73900
O76         O  0.82201868  0.76383856  0.13379228    -0.73800
O77         O  0.76489436  0.82009872  0.13154938    -0.73800
O78         O  0.77693197  0.71995587  0.18199384    -0.73900
Ni79       Ni  0.74093207  0.73836955  0.10539068     1.25400
Ni80       Ni  0.77195710  0.77116642  0.15859495     1.25400
C81         C  0.76543050  0.68817293  0.16499246     0.88400
C82         C  0.74634830  0.82116266  0.09940125     0.88300
C83         C  0.82439442  0.74569795  0.10167142     0.88300
C84         C  0.68851651  0.76439676  0.16233094     0.88500
O85         O  0.78146605  0.27349656  0.07283989    -0.73800
O86         O  0.68204593  0.26073089  0.12462770    -0.73800
O87         O  0.73950046  0.31808442  0.12086565    -0.73900
O88         O  0.72387571  0.21590742  0.07596973    -0.73900
O89         O  0.75568962  0.18759012  0.12484014    -0.73900
O90         O  0.77007269  0.29016468  0.17091557    -0.73800
O91         O  0.71311732  0.23145755  0.17358712    -0.73800
O92         O  0.81266511  0.24601950  0.12256732    -0.73900
Ni93       Ni  0.73064692  0.26796141  0.09678530     1.25400
Ni94       Ni  0.76396833  0.23781872  0.14980893     1.25400
C95         C  0.81357485  0.26347909  0.08977715     0.88400
C96         C  0.68120195  0.24278396  0.15717889     0.88300
C97         C  0.75817318  0.32094696  0.15280376     0.88300
C98         C  0.73627989  0.18480801  0.09315623     0.88500
C99         C  0.50276152  0.82222019  0.21185406     0.46100
H100        H  0.50706144  0.82331373  0.18042901    -0.02900
C101        C  0.49796072  0.82078760  0.28641218     0.46100
H102        H  0.49568692  0.81847088  0.31819538    -0.02900
C103        C  0.49903220  0.86405288  0.22997301    -0.16600
C104        C  0.46669577  0.79748599  0.22669432    -0.16400
C105        C  0.53886915  0.80444239  0.23135269    -0.16800
C106        C  0.49696817  0.86327779  0.26998680    -0.16700
C107        C  0.46346185  0.79921359  0.26642314    -0.16300
C108        C  0.53609622  0.80298118  0.27052685    -0.16600
C109        C  0.67910385  0.99624141  0.46446559     0.46100
H110        H  0.68143552  0.99554918  0.43266032    -0.02900
C111        C  0.67679919  0.99956984  0.03917488     0.46100
H112        H  0.67683338  0.00023032  0.07112072    -0.02900
C113        C  0.63625854  0.99837679  0.48039498    -0.16600
C114        C  0.69691385  0.96004606  0.48433884    -0.16400
C115        C  0.70095973  0.03249962  0.48131640    -0.16800
C116        C  0.63511589  0.00009558  0.02049577    -0.16700
C117        C  0.69640213  0.96237232  0.02359734    -0.16300
C118        C  0.69900952  0.03469425  0.02067670    -0.16600
C119        C  0.31459309  0.00295619  0.46351727     0.46100
H120        H  0.31234404  0.00326253  0.43173630    -0.02900
C121        C  0.31563227  0.00023180  0.03815334     0.46100
H122        H  0.31455323  0.99969178  0.07006190    -0.02900
C123        C  0.35727548  0.00282155  0.48032161    -0.16600
C124        C  0.29462941  0.03828578  0.48240732    -0.16400
C125        C  0.29441722  0.96582388  0.48029497    -0.16800
C126        C  0.35770248  0.00209472  0.02043708    -0.16700
C127        C  0.29494247  0.03664605  0.02172123    -0.16300
C128        C  0.29571591  0.96378068  0.01964421    -0.16600
C129        C  0.49706338  0.18302081  0.21519289     0.46100
H130        H  0.49485458  0.18599357  0.18348960    -0.02900
C131        C  0.50018240  0.17971168  0.28990776     0.46100
H132        H  0.50189376  0.17938902  0.32183489    -0.02900
C133        C  0.49759524  0.14000433  0.23084386    -0.16600
C134        C  0.53425885  0.20287692  0.23240961    -0.16400
C135        C  0.46176738  0.20202109  0.23499236    -0.16800
C136        C  0.49899395  0.13829426  0.27099825    -0.16700
C137        C  0.53584171  0.20091328  0.27174090    -0.16300
C138        C  0.46365070  0.20065222  0.27422301    -0.16600
C139        C  0.49605644  0.00276575  0.12554433    -0.01900
C140        C  0.49665032  0.99973565  0.37680581    -0.01900
C141        C  0.82186555  0.50379478  0.21286444     0.46100
H142        H  0.82112365  0.50676680  0.18098804    -0.02900
C143        C  0.82350526  0.49683842  0.28772860     0.46100
H144        H  0.82432460  0.49394852  0.31961087    -0.02900
C145        C  0.86402126  0.50295720  0.22968171    -0.16600
C146        C  0.80205871  0.53780031  0.23404748    -0.16400
C147        C  0.80162615  0.46571553  0.22797683    -0.16800
C148        C  0.86481274  0.49955545  0.26917710    -0.16700
C149        C  0.80228764  0.53400848  0.27339372    -0.16300
C150        C  0.80334890  0.46166032  0.26737762    -0.16600
C151        C  0.99515354  0.68043412  0.46273141     0.46100
H152        H  0.99103362  0.67993614  0.43097596    -0.02900
C153        C  0.00473083  0.68117585  0.03733440     0.46100
H154        H  0.00870800  0.68144271  0.06909923    -0.02900
C155        C  0.99884780  0.63905111  0.48071840    -0.16600
C156        C  0.03249981  0.70306720  0.47576355    -0.16400
C157        C  0.96089398  0.69907107  0.48440169    -0.16800
C158        C  0.00355594  0.63931528  0.02010689    -0.16700
C159        C  0.03817624  0.70249262  0.01507230    -0.16300
C160        C  0.96601323  0.70030467  0.02367197    -0.16600
C161        C  0.00398594  0.32341192  0.46332715     0.46100
H162        H  0.00654579  0.32345926  0.43142711    -0.02900
C163        C  0.99809676  0.32352413  0.03822420     0.46100
H164        H  0.99560169  0.32374919  0.07012618    -0.02900
C165        C  0.00269600  0.36512666  0.48069625    -0.16600
C166        C  0.96654318  0.30205009  0.47847302    -0.16400
C167        C  0.03863267  0.30373624  0.48403110    -0.16800
C168        C  0.99965656  0.36511885  0.02013279    -0.16700
C169        C  0.96317173  0.30295615  0.01791801    -0.16300
C170        C  0.03530118  0.30301918  0.02342467    -0.16600
C171        C  0.17643571  0.49441588  0.21311295     0.46100
H172        H  0.17593557  0.48968695  0.18147253    -0.02900
C173        C  0.17762414  0.50558028  0.28739936     0.46100
H174        H  0.17811687  0.51008380  0.31906223    -0.02900
C175        C  0.13497732  0.49739525  0.23117251    -0.16600
C176        C  0.19634970  0.46126106  0.23566166    -0.16400
C177        C  0.19823316  0.53254663  0.22509916    -0.16800
C178        C  0.13555762  0.50321665  0.27038632    -0.16700
C179        C  0.19748064  0.46713043  0.27463843    -0.16300
C180        C  0.19792713  0.53902941  0.26416770    -0.16600
C181        C  0.00015444  0.50130198  0.12411223    -0.01900
C182        C  0.99937436  0.50254669  0.37632100    -0.01900
O183        O  0.26544008  0.21156070  0.08436961    -0.73800
O184        O  0.25079007  0.31049098  0.13540469    -0.73800
O185        O  0.30863342  0.25590478  0.13404127    -0.73900
O186        O  0.20700502  0.26703277  0.08576849    -0.73900
O187        O  0.17778939  0.23569801  0.13513205    -0.73900
O188        O  0.27979233  0.22230027  0.18219521    -0.73800
O189        O  0.22248642  0.27835668  0.18466760    -0.73800
O190        O  0.23500068  0.17964762  0.13270429    -0.73900
Ni191      Ni  0.25893059  0.26229519  0.10805263     1.25400
Ni192      Ni  0.22776264  0.22786385  0.16044295     1.25400
C193        C  0.25343373  0.17936543  0.10055178     0.88400
C194        C  0.23359754  0.31073995  0.16823725     0.88300
C195        C  0.31092295  0.23650760  0.16570135     0.88300
C196        C  0.17568370  0.25457589  0.10315156     0.88500
C197        C  0.07254375  0.47364880  0.29563735    -0.20700
C198        C  0.09995352  0.50508144  0.29529252    -0.08700
C199        C  0.09467844  0.53673922  0.32060785     0.30100
C200        C  0.06243942  0.53680852  0.34596070    -0.20700
C201        C  0.03572697  0.50410721  0.34842025    -0.08700
C202        C  0.04108276  0.47293290  0.32170085     0.30200
F203        F  0.01616854  0.44100819  0.32129073    -0.19200
H204        H  0.07625561  0.44885488  0.27645840     0.18500
H205        H  0.05874157  0.56299157  0.36307311     0.18500
F206        F  0.12038036  0.56806472  0.32040866    -0.19200
C207        C  0.07320870  0.52845992  0.20653610    -0.20700
C208        C  0.09899745  0.49651479  0.20675794    -0.08700
C209        C  0.09246686  0.46539025  0.18099694     0.30100
C210        C  0.06110132  0.46653227  0.15480566    -0.20700
C211        C  0.03599446  0.49961080  0.15244872    -0.08700
C212        C  0.04202183  0.53002147  0.18001008     0.30200
F213        F  0.01803216  0.56180828  0.18085678    -0.19200
H214        H  0.07794705  0.55284605  0.22619179     0.18500
H215        H  0.05658437  0.44074634  0.13711540     0.18500
F216        F  0.11624433  0.43343451  0.18142308    -0.19200
C217        C  0.18341791  0.38922309  0.22706843    -0.20700
C218        C  0.20611636  0.42305529  0.21776831    -0.08700
C219        C  0.23859969  0.41983079  0.19303614     0.30100
C220        C  0.24786686  0.38307143  0.17732880    -0.20700
C221        C  0.22517257  0.34902125  0.18664995    -0.08700
C222        C  0.19297522  0.35244149  0.21204421     0.30200
F223        F  0.16988045  0.32056283  0.22142493    -0.19200
H224        H  0.15814509  0.39140484  0.24606479     0.18500
H225        H  0.27294288  0.38115913  0.15806173     0.18500
F226        F  0.26175987  0.45199402  0.18485621    -0.19200
C227        C  0.96597812  0.43929803  0.09339417    -0.20700
C228        C  0.99906281  0.46541002  0.09617185    -0.08700
C229        C  0.03073836  0.45973653  0.06997675     0.30100
C230        C  0.03035638  0.42776242  0.04462414    -0.20700
C231        C  0.99834925  0.40098168  0.04415334    -0.08700
C232        C  0.96591848  0.40728164  0.06822877     0.30200
F233        F  0.93372854  0.38274160  0.06697689    -0.19200
H234        H  0.93945207  0.44347096  0.11012638     0.18500
H235        H  0.05557668  0.42331467  0.02596229     0.18500
F236        F  0.06281484  0.48452858  0.06977197    -0.19200
C237        C  0.97167414  0.42735999  0.45708654    -0.20700
C238        C  0.00329907  0.40117234  0.45623960    -0.08700
C239        C  0.03486756  0.40871601  0.43104873     0.30100
C240        C  0.03443275  0.44148961  0.40640993    -0.20700
C241        C  0.00141217  0.46672369  0.40467206    -0.08700
C242        C  0.97075165  0.45987894  0.43202187     0.30200
F243        F  0.93876589  0.48359301  0.43325541    -0.19200
H244        H  0.94708774  0.42200468  0.47653018     0.18500
H245        H  0.06046167  0.44662106  0.38899280     0.18500
F246        F  0.06662424  0.38467926  0.43065530    -0.19200
C247        C  0.11570842  0.23753606  0.06381640    -0.20700
C248        C  0.13665914  0.26445423  0.08707692    -0.08700
C249        C  0.12122520  0.30223182  0.09323634     0.30100
C250        C  0.08627898  0.31361297  0.07476614    -0.20700
C251        C  0.06680401  0.28773866  0.04927270    -0.08700
C252        C  0.08094425  0.24906460  0.04498651     0.30200
F253        F  0.06177196  0.22297444  0.02159921    -0.19200
H254        H  0.12703491  0.20816735  0.05916412     0.18500
H255        H  0.07587808  0.34349572  0.07836339     0.18500
F256        F  0.14086510  0.32860559  0.11598382    -0.19200
C257        C  0.97293492  0.57618446  0.04385714    -0.20700
C258        C  0.00454247  0.60342736  0.04478468    -0.08700
C259        C  0.03576173  0.59738467  0.07070146     0.30100
C260        C  0.03498202  0.56482286  0.09579322    -0.20700
C261        C  0.00221026  0.53806612  0.09675036    -0.08700
C262        C  0.97173946  0.54391221  0.06912807     0.30200
F263        F  0.94002514  0.51876530  0.06715976    -0.19200
H264        H  0.94851179  0.58046533  0.02406371     0.18500
H265        H  0.06064573  0.56074470  0.11384470     0.18500
F266        F  0.06755328  0.62252334  0.07118935    -0.19200
C267        C  0.96504446  0.59589306  0.43286000    -0.20700
C268        C  0.99789171  0.60326999  0.45639068    -0.08700
C269        C  0.03026309  0.57804027  0.45466238     0.30100
C270        C  0.02989874  0.54630648  0.42897174    -0.20700
C271        C  0.99775558  0.53929344  0.40341685    -0.08700
C272        C  0.96421898  0.56398535  0.40743475     0.30200
F273        F  0.92935842  0.55662921  0.38920264    -0.19200
H274        H  0.93942989  0.61466676  0.43472365     0.18500
H275        H  0.05538266  0.52728639  0.42840636     0.18500
F276        F  0.06282352  0.58490098  0.47680777    -0.19200
C277        C  0.90606575  0.46682278  0.31844575    -0.20700
C278        C  0.90083983  0.49868428  0.29333323    -0.08700
C279        C  0.92760819  0.53074588  0.29441054     0.30100
C280        C  0.95842286  0.53126370  0.32136003    -0.20700
C281        C  0.96331056  0.50002671  0.34830088    -0.08700
C282        C  0.93724398  0.46667000  0.34487888     0.30200
F283        F  0.94237402  0.43263887  0.36487137    -0.19200
H284        H  0.88595406  0.44150299  0.31724747     0.18500
H285        H  0.97836054  0.55672831  0.32186116     0.18500
F286        F  0.92290106  0.56237501  0.27070961    -0.19200
C287        C  0.92517972  0.47175780  0.20427279    -0.20700
C288        C  0.89928978  0.50359604  0.20433323    -0.08700
C289        C  0.90547289  0.53470241  0.17812226     0.30100
C290        C  0.93746876  0.53438102  0.15272556    -0.20700
C291        C  0.96328718  0.50189563  0.15115994    -0.08700
C292        C  0.95661229  0.47068102  0.17810343     0.30200
F293        F  0.98034242  0.43868463  0.17883069    -0.19200
H294        H  0.92044798  0.44715141  0.22396469     0.18500
H295        H  0.94187147  0.56038119  0.13497697     0.18500
F296        F  0.88090585  0.56598895  0.17744949    -0.19200
C297        C  0.47727478  0.10361301  0.33112560    -0.20700
C298        C  0.49883932  0.10234913  0.29663714    -0.08700
C299        C  0.52315151  0.06961340  0.29058135     0.30100
C300        C  0.52299242  0.03785811  0.31700626    -0.20700
C301        C  0.49880864  0.03765840  0.35045669    -0.08700
C302        C  0.47893045  0.07326746  0.35844833     0.30200
F303        F  0.46167708  0.08011706  0.39290324    -0.19200
H304        H  0.45954230  0.12898155  0.33781619     0.18500
H305        H  0.54151528  0.01286916  0.31094238     0.18500
F306        F  0.54789056  0.06861705  0.25987903    -0.19200
C307        C  0.47248175  0.07180468  0.21204275    -0.20700
C308        C  0.49512851  0.10582638  0.20339611    -0.08700
C309        C  0.51306411  0.10821107  0.16670688     0.30100
C310        C  0.50950464  0.07699091  0.14062665    -0.20700
C311        C  0.49309631  0.04011619  0.15179180    -0.08700
C312        C  0.47158061  0.03937132  0.18703659     0.30200
F313        F  0.45003372  0.00713894  0.19816296    -0.19200
H314        H  0.45559234  0.06998604  0.23846038     0.18500
H315        H  0.52170170  0.08137924  0.11215230     0.18500
F316        F  0.53565777  0.13994229  0.15602165    -0.19200
C317        C  0.41502717  0.25047358  0.20550657    -0.20700
C318        C  0.42468074  0.21122730  0.21420177    -0.08700
C319        C  0.39702607  0.18073684  0.20667825     0.30100
C320        C  0.35990814  0.18945944  0.19136182    -0.20700
C321        C  0.35010453  0.22859665  0.18252368    -0.08700
C322        C  0.37807201  0.25914697  0.18922946     0.30200
F323        F  0.36908712  0.29733803  0.18140886    -0.19200
H324        H  0.43583460  0.27427792  0.21186470     0.18500
H325        H  0.33883772  0.16557533  0.18608451     0.18500
F326        F  0.40543513  0.14262365  0.21542536    -0.19200
C327        C  0.39105304  0.98293734  0.08196321    -0.20700
C328        C  0.39300446  0.00349854  0.04676034    -0.08700
C329        C  0.42615750  0.02839567  0.04018107     0.30100
C330        C  0.45830155  0.02838941  0.06592953    -0.20700
C331        C  0.45795667  0.00473605  0.09981114    -0.08700
C332        C  0.42133660  0.98601274  0.10921310     0.30200
F333        F  0.41387246  0.97055692  0.14457517    -0.19200
H334        H  0.36546082  0.96465987  0.08917888     0.18500
H335        H  0.48388442  0.04685100  0.05906038     0.18500
F336        F  0.42722086  0.05337483  0.50954757    -0.19200
C337        C  0.42587890  0.97810197  0.46383055    -0.20700
C338        C  0.39252580  0.00033879  0.45390135    -0.08700
C339        C  0.39160744  0.01732448  0.41670400     0.30100
C340        C  0.42269967  0.01194756  0.39083669    -0.20700
C341        C  0.45915096  0.99662142  0.40317315    -0.08700
C342        C  0.45907662  0.97699593  0.43954197     0.30200
F343        F  0.49095845  0.95683046  0.45225034    -0.19200
H344        H  0.42670037  0.96186438  0.49070133     0.18500
H345        H  0.41937449  0.02353722  0.36198769     0.18500
F346        F  0.36186108  0.04127136  0.40549024    -0.19200
C347        C  0.24375188  0.08324927  0.04575556    -0.20700
C348        C  0.28312034  0.07043980  0.04607578    -0.08700
C349        C  0.31198234  0.09260754  0.06621082     0.30100
C350        C  0.30192585  0.12810193  0.08386585    -0.20700
C351        C  0.26280701  0.14131106  0.08278709    -0.08700
C352        C  0.23347006  0.11817588  0.06456720     0.30200
F353        F  0.19529186  0.13009067  0.06387285    -0.19200
H354        H  0.22121642  0.06654939  0.03027656     0.18500
H355        H  0.32478052  0.14554714  0.09817003     0.18500
F356        F  0.35034600  0.08131244  0.06675607    -0.19200
C357        C  0.56604670  0.97663139  0.03993671    -0.20700
C358        C  0.59904085  0.00169171  0.04586932    -0.08700
C359        C  0.59957073  0.02518468  0.07929387     0.30100
C360        C  0.56854016  0.02313626  0.10596179    -0.20700
C361        C  0.53336705  0.00132976  0.09850597    -0.08700
C362        C  0.53379648  0.97632007  0.06560815     0.30200
F363        F  0.50288087  0.95140073  0.05793674    -0.19200
H364        H  0.56537209  0.95675636  0.01556970     0.18500
H365        H  0.57244799  0.03936117  0.13243814     0.18500
F366        F  0.63002009  0.05085748  0.08634701    -0.19200
C367        C  0.57003501  0.02577725  0.46010868    -0.20700
C368        C  0.60163811  0.00042568  0.45316456    -0.08700
C369        C  0.60158177  0.97958989  0.41802577     0.30100
C370        C  0.57012979  0.98292821  0.39193644    -0.20700
C371        C  0.53525955  0.00285344  0.40178347    -0.08700
C372        C  0.53739874  0.02711695  0.43506541     0.30200
F373        F  0.50735434  0.05123247  0.44451113    -0.19200
H374        H  0.57032863  0.04462539  0.48530122     0.18500
H375        H  0.57261189  0.96794668  0.36466332     0.18500
F376        F  0.63102848  0.95444078  0.40911269    -0.19200
C377        C  0.51248948  0.89502987  0.33361361    -0.20700
C378        C  0.49439613  0.89777882  0.29714248    -0.08700
C379        C  0.47138707  0.93128737  0.28968835     0.30100
C380        C  0.47139731  0.96303874  0.31571872    -0.20700
C381        C  0.49342231  0.96212615  0.35057893    -0.09900
C382        C  0.50959555  0.92519022  0.36079120     0.30200
F383        F  0.52341644  0.91782257  0.39674581    -0.19200
H384        H  0.52908128  0.86921667  0.34171075     0.18500
H385        H  0.45428663  0.98875140  0.30824394     0.18500
F386        F  0.44775368  0.93303780  0.25813372    -0.19200
C387        C  0.47971185  0.92945625  0.14313050    -0.20700
C388        C  0.50003872  0.96505026  0.15149357    -0.08700
C389        C  0.52488844  0.96488935  0.18472417     0.30100
C390        C  0.52452851  0.93256068  0.21052473    -0.20700
C391        C  0.49931702  0.89977469  0.20421513    -0.08700
C392        C  0.47649537  0.89918612  0.17040252     0.30200
F393        F  0.44887788  0.87042043  0.16463229    -0.19200
H394        H  0.46375423  0.92557773  0.11638655     0.18500
H395        H  0.54376571  0.93329450  0.23553995     0.18500
F396        F  0.54899349  0.99630370  0.19283154    -0.19200
C397        C  0.74015040  0.37865732  0.19270293    -0.20700
C398        C  0.76713947  0.36042983  0.16828518    -0.08700
C399        C  0.80297504  0.37999173  0.15899872     0.30100
C400        C  0.81267598  0.41641708  0.17593635    -0.20700
C401        C  0.78681897  0.43347083  0.20247552    -0.08700
C402        C  0.74974015  0.41507632  0.20953758     0.30200
F403        F  0.72383327  0.43126278  0.23452015    -0.19200
H404        H  0.71219362  0.36412344  0.19958966     0.18500
H405        H  0.84144578  0.42992303  0.17037002     0.18500
F406        F  0.82917566  0.36309605  0.13474417    -0.19200
C407        C  0.59927331  0.18447397  0.20573459    -0.20700
C408        C  0.56969942  0.21277266  0.20917892    -0.08700
C409        C  0.57638863  0.25111968  0.19468270     0.30100
C410        C  0.61257561  0.26089915  0.17695569    -0.20700
C411        C  0.64284620  0.23295676  0.17518720    -0.08700
C412        C  0.63591654  0.19464868  0.18982082     0.30200
F413        F  0.66446102  0.16689649  0.18833189    -0.19200
H414        H  0.59438273  0.15473898  0.21673680     0.18500
H415        H  0.61747673  0.29055221  0.16576743     0.18500
F416        F  0.54847564  0.27920048  0.19868675    -0.19200
C417        C  0.88727744  0.25616124  0.08511517    -0.20700
C418        C  0.85217626  0.27371469  0.07192398    -0.08700
C419        C  0.85463494  0.30285286  0.04286741     0.30100
C420        C  0.89102943  0.31285771  0.02647626    -0.20700
C421        C  0.92564052  0.29392723  0.03828393    -0.08700
C422        C  0.92386510  0.26631419  0.06849351     0.30200
F423        F  0.95721654  0.24839455  0.08101576    -0.19200
H424        H  0.88635864  0.23427663  0.10800681     0.18500
H425        H  0.89224678  0.33540469  0.50417845     0.18500
F426        F  0.82208182  0.32238735  0.03069628    -0.19200
C427        C  0.69608324  0.14246791  0.04885335    -0.20700
C428        C  0.72658005  0.14544120  0.07635623    -0.08700
C429        C  0.74609043  0.11065877  0.08776233     0.30100
C430        C  0.73635079  0.07427148  0.07046813    -0.20700
C431        C  0.70696793  0.07204780  0.04193738    -0.08700
C432        C  0.68593599  0.10621680  0.03231029     0.30200
F433        F  0.65547431  0.10451026  0.00675177    -0.19200
H434        H  0.67962357  0.16829666  0.04027690     0.18500
H435        H  0.75241710  0.04803161  0.07858590     0.18500
F436        F  0.77511475  0.11186661  0.11483682    -0.19200
C437        C  0.64488171  0.81089825  0.19682551    -0.20700
C438        C  0.64923617  0.77448925  0.17813763    -0.08700
C439        C  0.61571143  0.74947520  0.17370673     0.30100
C440        C  0.57934608  0.75968139  0.19019920    -0.20700
C441        C  0.57574524  0.79537466  0.21016840    -0.08700
C442        C  0.60831764  0.82168312  0.21187133     0.30200
F443        F  0.60474210  0.85780275  0.22824056    -0.19200
H444        H  0.66978986  0.83141499  0.19923873     0.18500
H445        H  0.55420601  0.73942172  0.18808316     0.18500
F446        F  0.61839349  0.71472191  0.15460648    -0.19200
C447        C  0.75995675  0.57895381  0.19093211    -0.20700
C448        C  0.79331128  0.57563260  0.21461556    -0.08700
C449        C  0.81745023  0.60911782  0.22160980     0.30100
C450        C  0.80757400  0.64571261  0.20606679    -0.20700
C451        C  0.77391315  0.64943777  0.18265895    -0.08700
C452        C  0.75026344  0.61562362  0.17488282     0.30200
F453        F  0.71734553  0.61817630  0.15257913    -0.19200
H454        H  0.74108535  0.55333330  0.18552397     0.18500
H455        H  0.82676295  0.67104192  0.21172139     0.18500
F456        F  0.85081445  0.60629549  0.24327317    -0.19200
C457        C  0.76289205  0.88475075  0.06606003    -0.20700
C458        C  0.73481217  0.85936483  0.08324816    -0.08700
C459        C  0.69482644  0.87017769  0.08438012     0.30100
C460        C  0.68294710  0.90575805  0.06774374    -0.20700
C461        C  0.71059334  0.93008701  0.04858732    -0.08700
C462        C  0.75077439  0.91976496  0.04828345     0.30200
F463        F  0.77787636  0.94284665  0.02952006    -0.19200
H464        H  0.79379131  0.87668470  0.06510323     0.18500
H465        H  0.65181671  0.91309741  0.06758335     0.18500
F466        F  0.66719366  0.84577495  0.10076026    -0.19200
C467        C  0.91881495  0.75277816  0.04345324    -0.20700
C468        C  0.93492011  0.71519220  0.04999701    -0.08700
C469        C  0.91651781  0.68961226  0.07679059     0.30100
C470        C  0.88097959  0.70035482  0.09435990    -0.20700
C471        C  0.86369240  0.73685868  0.08587977    -0.08700
C472        C  0.88343757  0.76359096  0.06125000     0.30200
F473        F  0.86762301  0.79932863  0.05314251    -0.19200
H474        H  0.93258244  0.77288412  0.02286629     0.18500
H475        H  0.86614156  0.67957195  0.11360015     0.18500
F476        F  0.93104500  0.65301057  0.58351566    -0.19200
C477        C  0.26627046  0.60936336  0.17946479    -0.20700
C478        C  0.23988715  0.62878775  0.15491894    -0.08700
C479        C  0.20154295  0.61290893  0.14940876     0.30100
C480        C  0.18905080  0.57925172  0.17001217    -0.20700
C481        C  0.21444388  0.56165030  0.19686109    -0.08700
C482        C  0.25371495  0.57584515  0.20024480     0.30200
F483        F  0.27916377  0.55845867  0.22517910    -0.19200
H484        H  0.29585607  0.62141043  0.18410286     0.18500
H485        H  0.15866206  0.56876659  0.16719149     0.18500
F486        F  0.17542421  0.63153138  0.12603048    -0.19200
C487        C  0.39683698  0.77149230  0.14284842    -0.20700
C488        C  0.36751088  0.74998114  0.16273964    -0.08700
C489        C  0.37563108  0.73597389  0.19975269     0.30100
C490        C  0.41101781  0.74693508  0.21787166    -0.20700
C491        C  0.43684822  0.77569254  0.20139681    -0.08700
C492        C  0.43161266  0.78377528  0.16164810     0.30200
F493        F  0.45951557  0.80254989  0.14010268    -0.19200
H494        H  0.39207477  0.78030046  0.11318646     0.18500
H495        H  0.41705038  0.73399073  0.24562457     0.18500
F496        F  0.34919307  0.71212928  0.21854185    -0.19200
C497        C  0.11938050  0.74326494  0.08018125    -0.20700
C498        C  0.15307698  0.72512825  0.06486305    -0.08700
C499        C  0.14827240  0.69875946  0.03388673     0.30100
C500        C  0.11076784  0.69109057  0.01868217    -0.20700
C501        C  0.07739734  0.71026449  0.03304437    -0.08700
C502        C  0.08176884  0.73591013  0.06438213     0.30200
F503        F  0.04984633  0.75425249  0.07923591    -0.19200
H504        H  0.12215953  0.76332671  0.10428044     0.18500
H505        H  0.10772960  0.66985555  0.49549517     0.18500
F506        F  0.17953322  0.67945447  0.01880203    -0.19200
C507        C  0.30917508  0.85639705  0.04714421    -0.20700
C508        C  0.27752332  0.84932940  0.07255398    -0.08700
C509        C  0.25362253  0.88134534  0.08316513     0.30100
C510        C  0.26029687  0.91906951  0.06697990    -0.20700
C511        C  0.29108164  0.92544379  0.04052439    -0.08700
C512        C  0.31631402  0.89407906  0.03178617     0.30200
F513        F  0.34765789  0.89983279  0.00784963    -0.19200
H514        H  0.32866307  0.83265276  0.03924043     0.18500
H515        H  0.24075990  0.94300572  0.07420001     0.18500
F516        F  0.22294489  0.87591255  0.10794546    -0.19200
C517        C  0.38257956  0.75813702  0.33232807    -0.20700
C518        C  0.34935460  0.77910256  0.31932152    -0.08700
C519        C  0.35507103  0.80917418  0.29148679     0.30100
C520        C  0.39256712  0.81650869  0.27577128    -0.20700
C521        C  0.42516174  0.79409783  0.28724381    -0.08700
C522        C  0.42026576  0.76569850  0.31659123     0.30200
F523        F  0.45138109  0.74374460  0.32831178    -0.19200
H524        H  0.37923869  0.73522438  0.35404284     0.18500
H525        H  0.39607536  0.83913735  0.25375592     0.18500
F526        F  0.32452651  0.83176546  0.27948863    -0.19200
C527        C  0.24040847  0.61946602  0.32860556    -0.20700
C528        C  0.22282473  0.65358250  0.31317115    -0.08700
C529        C  0.19602950  0.64932416  0.28226666     0.30100
C530        C  0.18799144  0.61200842  0.26683372    -0.20700
C531        C  0.20666810  0.57826516  0.28143659    -0.08700
C532        C  0.23227000  0.58210362  0.31301451     0.30200
F533        F  0.24977098  0.54982192  0.32842259    -0.19200
H534        H  0.26059373  0.62166437  0.35280563     0.18500
H535        H  0.16661267  0.60936820  0.24364554     0.18500
F536        F  0.17662475  0.68087809  0.26760650    -0.19200
C537        C  0.29545525  0.88126557  0.40932739    -0.20700
C538        C  0.25809402  0.86374425  0.41541915    -0.08700
C539        C  0.23149682  0.88121785  0.44090720     0.30100
C540        C  0.24286904  0.91539626  0.46099442    -0.20700
C541        C  0.28076616  0.93244890  0.45568082    -0.08700
C542        C  0.30675144  0.91547790  0.42910582     0.30200
F543        F  0.34401173  0.93026703  0.42417775    -0.19200
H544        H  0.31638252  0.86766309  0.39004270     0.18500
H545        H  0.22254777  0.92820389  0.98122297     0.18500
F546        F  0.19515451  0.86460844  0.44711392    -0.19200
C547        C  0.07844520  0.69326726  0.42059503    -0.20700
C548        C  0.06266914  0.71860974  0.44827541    -0.08700
C549        C  0.07993825  0.75642237  0.45341773     0.30100
C550        C  0.11458523  0.76717773  0.43367614    -0.20700
C551        C  0.13197166  0.74057532  0.40830019    -0.08700
C552        C  0.11309296  0.70406195  0.40084912     0.30200
F553        F  0.12941471  0.67803851  0.37609900    -0.19200
H554        H  0.06563912  0.66399372  0.41634504     0.18500
H555        H  0.12878323  0.79552974  0.43941753     0.18500
F556        F  0.06455822  0.78196814  0.97921584    -0.19200
C557        C  0.19631748  0.37754668  0.33919408    -0.20700
C558        C  0.23466169  0.36337900  0.33341518    -0.08700
C559        C  0.26255939  0.38686707  0.31353416     0.30100
C560        C  0.25126457  0.42304265  0.29744717    -0.20700
C561        C  0.21215810  0.43621317  0.30128209    -0.08700
C562        C  0.18511359  0.41386059  0.32346930     0.30200
F563        F  0.14695210  0.42526849  0.32690085    -0.19200
H564        H  0.17466037  0.35979300  0.35488542     0.18500
H565        H  0.27226250  0.43965062  0.27990838     0.18500
F566        F  0.29990374  0.37385324  0.30790440    -0.19200
C567        C  0.38843715  0.26148936  0.32658274    -0.20700
C568        C  0.35741714  0.23361799  0.33068221    -0.08700
C569        C  0.36334534  0.19413812  0.32003416     0.30100
C570        C  0.39939585  0.18303458  0.30432266    -0.20700
C571        C  0.42967147  0.21119557  0.29838903    -0.08700
C572        C  0.42428727  0.25046714  0.30987190     0.30200
F573        F  0.45301020  0.27828991  0.30339446    -0.19200
H574        H  0.38431719  0.29195096  0.33493246     0.18500
H575        H  0.40309511  0.15270767  0.29504043     0.18500
F576        F  0.33421304  0.16635637  0.32488497    -0.19200
C577        C  0.07589574  0.26630482  0.43433623    -0.20700
C578        C  0.07565014  0.29465623  0.46358938    -0.08700
C579        C  0.11086500  0.31500509  0.47314375     0.30100
C580        C  0.14634844  0.30496032  0.45585489    -0.20700
C581        C  0.14730472  0.27540812  0.42767539    -0.08700
C582        C  0.11149088  0.25679387  0.41619152     0.30200
F583        F  0.11086952  0.22910613  0.38803494    -0.19200
H584        H  0.04867010  0.25119649  0.42602702     0.18500
H585        H  0.17309075  0.32094007  0.46414148     0.18500
F586        F  0.11078398  0.34533665  0.99848861    -0.19200
C587        C  0.25315168  0.07845151  0.43705033    -0.20700
C588        C  0.28654510  0.07530314  0.46089707    -0.08700
C589        C  0.31168026  0.10839634  0.46588236     0.30100
C590        C  0.30229270  0.14461225  0.44924291    -0.20700
C591        C  0.26832748  0.14847785  0.42622372    -0.08700
C592        C  0.24413266  0.11477054  0.41950081     0.30200
F593        F  0.21126602  0.11717029  0.39709903    -0.19200
H594        H  0.23368295  0.05302923  0.43273040     0.18500
H595        H  0.32208099  0.16971295  0.45402757     0.18500
F596        F  0.34541216  0.10568385  0.48698304    -0.19200
C597        C  0.62002131  0.25429328  0.32291263    -0.20700
C598        C  0.64842757  0.22441828  0.32441685    -0.08700
C599        C  0.63829834  0.18633312  0.31125420     0.30100
C600        C  0.60034119  0.17831646  0.29705219    -0.20700
C601        C  0.57278947  0.20863252  0.29351500    -0.08700
C602        C  0.58259655  0.24667409  0.30675936     0.30200
F603        F  0.55635362  0.27644415  0.30327256    -0.19200
H604        H  0.62733118  0.28379065  0.33301742     0.18500
H605        H  0.59299357  0.14878836  0.28700117     0.18500
F606        F  0.66507884  0.15686660  0.31213610    -0.19200
C607        C  0.75813596  0.38295607  0.33295846    -0.20700
C608        C  0.77534858  0.34838224  0.31854754    -0.08700
C609        C  0.80346766  0.35192942  0.28877595     0.30100
C610        C  0.81405832  0.38909579  0.27417142    -0.20700
C611        C  0.79548302  0.42332584  0.28729095    -0.08700
C612        C  0.76798695  0.42015187  0.31736033     0.30200
F613        F  0.74984976  0.45279502  0.33079291    -0.19200
H614        H  0.73668994  0.38117985  0.35609288     0.18500
H615        H  0.83625655  0.39109882  0.25173451     0.18500
F616        F  0.82125042  0.31967423  0.27398632    -0.19200
C617        C  0.76442945  0.11900711  0.44590483    -0.20700
C618        C  0.73795982  0.13732527  0.42062885    -0.08700
C619        C  0.70145533  0.11878930  0.41226977     0.30100
C620        C  0.69091999  0.08295562  0.42996951    -0.20700
C621        C  0.71631540  0.06556588  0.45690976    -0.08700
C622        C  0.75377097  0.08319809  0.46392360     0.30200
F623        F  0.77945091  0.06633691  0.48898205    -0.19200
H624        H  0.79285995  0.13285809  0.45228417     0.18500
H625        H  0.66185441  0.07009869  0.42447802     0.18500
F626        F  0.67529171  0.13624850  0.38817003    -0.19200
C627        C  0.88200928  0.23749345  0.44149951    -0.20700
C628        C  0.86442741  0.26301999  0.41491436    -0.08700
C629        C  0.88319473  0.29928267  0.40576212     0.30100
C630        C  0.91825567  0.31068943  0.42458447    -0.20700
C631        C  0.93472745  0.28616481  0.45290053    -0.08700
C632        C  0.91714507  0.24874296  0.46016043     0.30200
F633        F  0.93300060  0.22387015  0.48660015    -0.19200
H634        H  0.86782852  0.20941248  0.44868688     0.18500
H635        H  0.93116028  0.33967591  0.41877856     0.18500
F636        F  0.86653041  0.32442943  0.38003507    -0.19200
C637        C  0.80455293  0.62415064  0.33737908    -0.20700
C638        C  0.76613418  0.63845955  0.33191051    -0.08700
C639        C  0.73824299  0.61542670  0.31167320     0.30100
C640        C  0.74945063  0.57969002  0.29503665    -0.20700
C641        C  0.78841925  0.56614500  0.29891386    -0.08700
C642        C  0.81557145  0.58798664  0.32143323     0.30200
F643        F  0.85349165  0.57597552  0.32554237    -0.19200
H644        H  0.82622206  0.64139827  0.35347607     0.18500
H645        H  0.72822043  0.56336555  0.27758553     0.18500
F646        F  0.70074493  0.62833933  0.30662243    -0.19200
C647        C  0.61104697  0.73773233  0.31959736    -0.20700
C648        C  0.64052484  0.76582870  0.32906615    -0.08700
C649        C  0.63345180  0.80619779  0.32288210     0.30100
C650        C  0.59776576  0.81821895  0.30667964    -0.20700
C651        C  0.56929583  0.79014624  0.29507161    -0.08700
C652        C  0.57579136  0.74978424  0.30197933     0.30200
F653        F  0.54856604  0.72217558  0.29068347    -0.19200
H654        H  0.61596905  0.70653018  0.32454478     0.18500
H655        H  0.59306393  0.84943663  0.30152487     0.18500
F656        F  0.66115843  0.83400412  0.33261075    -0.19200
C657        C  0.88391709  0.74382177  0.41863521    -0.20700
C658        C  0.84892749  0.72502336  0.43196342    -0.08700
C659        C  0.85163413  0.69624050  0.46126926     0.30100
C660        C  0.88827527  0.68744775  0.47739067    -0.20700
C661        C  0.92280554  0.70740357  0.46514797    -0.08700
C662        C  0.92064574  0.73499265  0.43501975     0.30200
F663        F  0.95386257  0.75391651  0.42206325    -0.19200
H664        H  0.88285794  0.76556440  0.39564981     0.18500
H665        H  0.88973590  0.66496524  0.49967556     0.18500
F666        F  0.81912788  0.67586056  0.47387890    -0.19200
C667        C  0.74660179  0.88330684  0.42148259    -0.20700
C668        C  0.72437800  0.84884038  0.43064755    -0.08700
C669        C  0.69219936  0.85201379  0.45617472     0.30100
C670        C  0.68278241  0.88853822  0.47201081    -0.20700
C671        C  0.70567202  0.92259864  0.46383078    -0.08700
C672        C  0.73751636  0.91986365  0.43813491     0.30200
F673        F  0.76045157  0.95220317  0.43008011    -0.19200
H674        H  0.77144300  0.88183102  0.40187208     0.18500
H675        H  0.65759100  0.89021024  0.49117423     0.18500
F676        F  0.66920905  0.82000780  0.46539463    -0.19200
O677        O  0.67891800  0.73443868  0.87759885    -0.73800
O678        O  0.77809052  0.72167054  0.92979232    -0.73800
O679        O  0.72096742  0.77800325  0.92855973    -0.73900
O680        O  0.73596093  0.67814111  0.87931589    -0.73900
O681        O  0.76789064  0.70896498  0.83124852    -0.73900
O682        O  0.75301334  0.80917287  0.88096737    -0.73800
O683        O  0.80967670  0.75263566  0.88177722    -0.73800
O684        O  0.71075845  0.76614577  0.83000161    -0.73900
Ni685      Ni  0.72736941  0.72698611  0.90552645     1.25400
Ni686      Ni  0.76137815  0.76026475  0.85418346     1.25400
C687        C  0.67854890  0.75400259  0.84593927     0.88400
C688        C  0.81033711  0.73386181  0.91385846     0.88300
C689        C  0.73357621  0.81014737  0.91264443     0.88300
C690        C  0.75567221  0.67707150  0.84793670     0.88500
O691        O  0.82198544  0.23548826  0.86689505    -0.73800
O692        O  0.71873179  0.21965852  0.82264008    -0.73800
O693        O  0.77613056  0.27756954  0.81904860    -0.73900
O694        O  0.76465619  0.17752085  0.87045196    -0.73900
O695        O  0.73627778  0.20748161  0.92019063    -0.73900
O696        O  0.74972550  0.30782283  0.86945775    -0.73800
O697        O  0.69162649  0.25129046  0.87200161    -0.73800
O698        O  0.79442951  0.26469901  0.91750142    -0.73900
Ni699      Ni  0.77132836  0.22648213  0.84295142     1.25400
Ni700      Ni  0.74205371  0.25882519  0.89662298     1.25400
C701        C  0.82507342  0.25353278  0.89909912     0.88400
C702        C  0.68821876  0.23246144  0.84025667     0.88300
C703        C  0.76615400  0.30933064  0.83625291     0.88300
C704        C  0.74750033  0.17602180  0.90325567     0.88500
O705        O  0.21768399  0.27635434  0.92734941    -0.73800
O706        O  0.31800701  0.26321913  0.87875693    -0.73800
O707        O  0.26275951  0.32093888  0.88017091    -0.73900
O708        O  0.27299241  0.21867225  0.92631159    -0.73900
O709        O  0.24149093  0.19040477  0.87684737    -0.73900
O710        O  0.23208942  0.29315313  0.82983590    -0.73800
O711        O  0.28721996  0.23419154  0.82915597    -0.73800
O712        O  0.18672322  0.24875528  0.87723214    -0.73900
Ni713      Ni  0.26891972  0.27074121  0.90492403     1.25400
Ni714      Ni  0.23585859  0.24069775  0.85133896     1.25400
C715        C  0.18566967  0.26590694  0.90995138     0.88400
C716        C  0.31906109  0.24493595  0.84664487     0.88300
C717        C  0.24440414  0.32390468  0.84809450     0.88300
C718        C  0.25994634  0.18765550  0.90902285     0.88500
O719        O  0.24756857  0.69435984  0.86391141    -0.73800
O720        O  0.25969593  0.79393806  0.91461655    -0.73800
O721        O  0.20189385  0.73689633  0.91097477    -0.73900
O722        O  0.30551035  0.75156565  0.86718006    -0.73900
O723        O  0.27851570  0.78191982  0.81672270    -0.73900
O724        O  0.17495013  0.76748903  0.86040855    -0.73800
O725        O  0.23292087  0.82458001  0.86398417    -0.73800
O726        O  0.22040493  0.72447348  0.81339832    -0.73900
Ni727      Ni  0.25460145  0.74312149  0.89096484     1.25400
Ni728      Ni  0.22577595  0.77567988  0.83677213     1.25400
C729        C  0.23090150  0.69274851  0.83079174     0.88400
C730        C  0.24910162  0.82557661  0.89734938     0.88300
C731        C  0.17149594  0.74909552  0.89255064     0.88300
C732        C  0.30920277  0.77020572  0.83509195     0.88500
O733        O  0.23871554  0.69819293  0.66005317    -0.73800
O734        O  0.25359593  0.80336226  0.62035809    -0.73800
O735        O  0.19541408  0.74685435  0.61603739    -0.73900
O736        O  0.29746213  0.75386471  0.66428864    -0.73900
O737        O  0.32556858  0.73033390  0.61117023    -0.73900
O738        O  0.22360435  0.72173911  0.56385131    -0.73800
O739        O  0.28146925  0.77885680  0.56770153    -0.73800
O740        O  0.26734227  0.67321314  0.60785766    -0.73900
Ni741      Ni  0.24538929  0.75147688  0.64207741     1.25400
Ni742      Ni  0.27550536  0.72517725  0.58575585     1.25400
C743        C  0.24966702  0.66853229  0.64024650     0.88400
C744        C  0.27028343  0.80855231  0.58757955     0.88300
C745        C  0.19261818  0.73192000  0.58229153     0.88300
C746        C  0.32826819  0.74389909  0.64537451     0.88500
O747        O  0.74816067  0.68949626  0.63222404    -0.73800
O748        O  0.73515449  0.78944449  0.58222382    -0.73800
O749        O  0.79320079  0.73353261  0.58379493    -0.73900
O750        O  0.69093278  0.74532387  0.63068004    -0.73900
O751        O  0.71992478  0.77673276  0.67980666    -0.73900
O752        O  0.82205381  0.76382161  0.63374423    -0.73800
O753        O  0.76495592  0.82010738  0.63148537    -0.73800
O754        O  0.77697065  0.71998934  0.68199141    -0.73900
Ni755      Ni  0.74095038  0.73836894  0.60538770     1.25400
Ni756      Ni  0.77200703  0.77118938  0.65856124     1.25400
C757        C  0.76545811  0.68819988  0.66500712     0.88400
C758        C  0.74637813  0.82115717  0.59935371     0.88300
C759        C  0.82440833  0.74566636  0.60162954     0.88300
C760        C  0.68856595  0.76444134  0.66233460     0.88500
O761        O  0.78144724  0.27350034  0.57278565    -0.73800
O762        O  0.68200819  0.26075340  0.62455085    -0.73800
O763        O  0.73946997  0.31810662  0.62078539    -0.73900
O764        O  0.72385263  0.21591389  0.57591739    -0.73900
O765        O  0.75565822  0.18761226  0.62480258    -0.73900
O766        O  0.77002123  0.29020039  0.67085467    -0.73800
O767        O  0.71306577  0.23148809  0.67352372    -0.73800
O768        O  0.81263016  0.24604049  0.62253257    -0.73900
Ni769      Ni  0.73061975  0.26797505  0.59671869     1.25400
Ni770      Ni  0.76392519  0.23784734  0.64976051     1.25400
C771        C  0.81355014  0.26348669  0.58973622     0.88400
C772        C  0.68115485  0.24280940  0.65710385     0.88300
C773        C  0.75813279  0.32097851  0.65272835     0.88300
C774        C  0.73625407  0.18482053  0.59311650     0.88500
C775        C  0.50277516  0.82217614  0.71185436     0.46100
H776        H  0.50707002  0.82327453  0.68042859    -0.02900
C777        C  0.49798417  0.82073745  0.78641447     0.46100
H778        H  0.49571743  0.81842851  0.81819949    -0.02900
C779        C  0.49905005  0.86400520  0.72997834    -0.16600
C780        C  0.46670812  0.79744312  0.72669707    -0.16400
C781        C  0.53888657  0.80439826  0.73134798    -0.16800
C782        C  0.49699769  0.86322719  0.76999043    -0.16700
C783        C  0.46347945  0.79916919  0.76642663    -0.16300
C784        C  0.53611351  0.80292554  0.77052186    -0.16600
C785        C  0.67917838  0.99624550  0.96443275     0.46100
H786        H  0.68151464  0.99555390  0.93262837    -0.02900
C787        C  0.67672736  0.99956585  0.53920932     0.46100
H788        H  0.67676230  0.00022600  0.57115519    -0.02900
C789        C  0.63633304  0.99838473  0.98036063    -0.16600
C790        C  0.69698270  0.96004667  0.98430256    -0.16400
C791        C  0.70103470  0.03250352  0.98128255    -0.16800
C792        C  0.63504325  0.00008660  0.52052925    -0.16700
C793        C  0.69633025  0.96237103  0.52363226    -0.16300
C794        C  0.69894009  0.03468765  0.52070971    -0.16600
C795        C  0.31469491  0.00293892  0.96345442     0.46100
H796        H  0.31245640  0.00322286  0.93167214    -0.02900
C797        C  0.31554545  0.00020011  0.53821407     0.46100
H798        H  0.31447054  0.99964458  0.57012245    -0.02900
C799        C  0.35737240  0.00281026  0.98026893    -0.16600
C800        C  0.29473445  0.03828403  0.98232053    -0.16400
C801        C  0.29450951  0.96582249  0.98024678    -0.16800
C802        C  0.35761180  0.00208490  0.52049037    -0.16700
C803        C  0.29484052  0.03661540  0.52180461    -0.16300
C804        C  0.29563941  0.96375293  0.51969163    -0.16600
C805        C  0.49700859  0.18303100  0.71516711     0.46100
H806        H  0.49478301  0.18600460  0.68346469    -0.02900
C807        C  0.50017413  0.17971305  0.78988098     0.46100
H808        H  0.50190973  0.17939326  0.82180636    -0.02900
C809        C  0.49751311  0.14001097  0.73081699    -0.16600
C810        C  0.53423399  0.20285389  0.73236285    -0.16400
C811        C  0.46174173  0.20205902  0.73499119    -0.16800
C812        C  0.49894480  0.13829716  0.77097056    -0.16700
C813        C  0.53584126  0.20088003  0.77169249    -0.16300
C814        C  0.46364990  0.20068846  0.77422093    -0.16600
C815        C  0.49598406  0.00272809  0.62557232    -0.01900
C816        C  0.49674060  0.99972337  0.87676242    -0.01900
C817        C  0.82188356  0.50380985  0.71281398     0.46100
H818        H  0.82113484  0.50680014  0.68093928    -0.02900
C819        C  0.82353598  0.49680875  0.78767369     0.46100
H820        H  0.82435967  0.49390127  0.81955438    -0.02900
C821        C  0.86404194  0.50296106  0.72962524    -0.16600
C822        C  0.80208353  0.53780421  0.73401973    -0.16400
C823        C  0.80164433  0.46572281  0.72790705    -0.16800
C824        C  0.86483990  0.49953878  0.76911973    -0.16700
C825        C  0.80231839  0.53398754  0.77336341    -0.16300
C826        C  0.80337874  0.46164125  0.76730529    -0.16600
C827        C  0.99514342  0.68044989  0.96277817     0.46100
H828        H  0.99102513  0.67995074  0.93102267    -0.02900
C829        C  0.00474850  0.68116135  0.53728707     0.46100
H830        H  0.00872663  0.68142978  0.56905176    -0.02900
C831        C  0.99880868  0.63906366  0.98076855    -0.16600
C832        C  0.03250365  0.70306435  0.97580998    -0.16400
C833        C  0.96089179  0.69910934  0.98444577    -0.16800
C834        C  0.00359559  0.63930278  0.52005603    -0.16700
C835        C  0.03818141  0.70249673  0.51502413    -0.16300
C836        C  0.96601859  0.70026747  0.52362642    -0.16600
C837        C  0.00396057  0.32346864  0.96331401     0.46100
H838        H  0.00649993  0.32354378  0.93141216    -0.02900
C839        C  0.99806966  0.32352682  0.53823292     0.46100
H840        H  0.99555299  0.32377585  0.57013317    -0.02900
C841        C  0.00269214  0.36516867  0.98071980    -0.16600
C842        C  0.96652151  0.30210696  0.97846416    -0.16400
C843        C  0.03861457  0.30376165  0.98397566    -0.16800
C844        C  0.99963539  0.36510465  0.52010749    -0.16700
C845        C  0.96316941  0.30293132  0.51792262    -0.16300
C846        C  0.03528351  0.30301979  0.52347671    -0.16600
C847        C  0.17638734  0.49437142  0.71313400     0.46100
H848        H  0.17589042  0.48962804  0.68149567    -0.02900
C849        C  0.17757367  0.50557501  0.78741425     0.46100
H850        H  0.17806672  0.51009700  0.81907458    -0.02900
C851        C  0.13492864  0.49737609  0.73118613    -0.16600
C852        C  0.19628158  0.46121938  0.73570024    -0.16400
C853        C  0.19820112  0.53249710  0.72510250    -0.16800
C854        C  0.13550667  0.50321890  0.77039808    -0.16700
C855        C  0.19741569  0.46710997  0.77467507    -0.16300
C856        C  0.19789601  0.53900158  0.76416681    -0.16600
C857        C  0.00016506  0.50129624  0.62405571    -0.01900
C858        C  0.99933258  0.50257717  0.87634570    -0.01900
O859        O  0.26530217  0.21144955  0.58449719    -0.73800
O860        O  0.25068274  0.31040625  0.63547662    -0.73800
O861        O  0.30851220  0.25580953  0.63413588    -0.73900
O862        O  0.20688288  0.26693203  0.58587704    -0.73900
O863        O  0.17766630  0.23563319  0.63526189    -0.73900
O864        O  0.27967449  0.22222757  0.68230375    -0.73800
O865        O  0.22239293  0.27830051  0.68476319    -0.73800
O866        O  0.23485293  0.17956312  0.63284281    -0.73900
Ni867      Ni  0.25880823  0.26219490  0.60815230     1.25400
Ni868      Ni  0.22764201  0.22779477  0.66056201     1.25400
C869        C  0.25328630  0.17926482  0.60069111     0.88400
C870        C  0.23350267  0.31067423  0.66831423     0.88300
C871        C  0.31080707  0.23642668  0.66580432     0.88300
C872        C  0.17556218  0.25449827  0.60327486     0.88500
C873        C  0.07250913  0.47364723  0.79567976    -0.20700
C874        C  0.09990234  0.50509347  0.79530435    -0.08700
C875        C  0.09461867  0.53676741  0.82059980     0.30100
C876        C  0.06238492  0.53684098  0.84596108    -0.20700
C877        C  0.03568644  0.50413083  0.84844591    -0.08700
C878        C  0.04105446  0.47293655  0.82175064     0.30200
F879        F  0.01615973  0.44099641  0.82137266    -0.19200
H880        H  0.07623041  0.44883934  0.77652038     0.18500
H881        H  0.05867774  0.56303210  0.86305968     0.18500
F882        F  0.12030793  0.56810300  0.82037345    -0.19200
C883        C  0.07316214  0.52843132  0.70653214    -0.20700
C884        C  0.09895607  0.49649074  0.70675986    -0.08700
C885        C  0.09245511  0.46538070  0.68097393     0.30100
C886        C  0.06111510  0.46653393  0.65475351    -0.20700
C887        C  0.03599862  0.49960502  0.65240008    -0.08700
C888        C  0.04199919  0.53000243  0.67998048     0.30200
F889        F  0.01799965  0.56178181  0.68082717    -0.19200
H890        H  0.07787978  0.55280876  0.72620193     0.18500
H891        H  0.05662221  0.44076027  0.63704161     0.18500
F892        F  0.11623822  0.43342843  0.68140269    -0.19200
C893        C  0.18342047  0.38915445  0.72722507    -0.20700
C894        C  0.20604213  0.42300627  0.71781871    -0.08700
C895        C  0.23843628  0.41980121  0.69297368     0.30100
C896        C  0.24769903  0.38303774  0.67727402    -0.20700
C897        C  0.22508889  0.34896546  0.68671205    -0.08700
C898        C  0.19297850  0.35236990  0.71221251     0.30200
F899        F  0.16996750  0.32047006  0.72171649    -0.19200
H900        H  0.15820693  0.39132211  0.74629753     0.18500
H901        H  0.27270576  0.38114132  0.65792069     0.18500
F902        F  0.26151729  0.45198876  0.68467528    -0.19200
C903        C  0.96598222  0.43929147  0.59335629    -0.20700
C904        C  0.99906914  0.46540231  0.59612119    -0.08700
C905        C  0.03073314  0.45973130  0.56991288     0.30100
C906        C  0.03033889  0.42775871  0.54455982    -0.20700
C907        C  0.99833098  0.40097883  0.54410511    -0.08700
C908        C  0.96591079  0.40727772  0.56819172     0.30200
F909        F  0.93372162  0.38273568  0.56695531    -0.19200
H910        H  0.93946204  0.44346203  0.61009765     0.18500
H911        H  0.05555139  0.42330917  0.52588852     0.18500
F912        F  0.06280676  0.48452689  0.56969153    -0.19200
C913        C  0.97162741  0.42737660  0.95709996    -0.20700
C914        C  0.00328573  0.40122758  0.95628609    -0.08700
C915        C  0.03487327  0.40880629  0.93112899     0.30100
C916        C  0.03442261  0.44156956  0.90648084    -0.20700
C917        C  0.00137103  0.46675979  0.90470165    -0.08700
C918        C  0.97069162  0.45988925  0.93202646     0.30200
F919        F  0.93867696  0.48356738  0.93322284    -0.19200
H920        H  0.94702689  0.42199286  0.97652049     0.18500
H921        H  0.06046544  0.44673037  0.88908974     0.18500
F922        F  0.06666077  0.38480970  0.93077405    -0.19200
C923        C  0.11552426  0.23746008  0.56403326    -0.20700
C924        C  0.13654387  0.26440136  0.58721160    -0.08700
C925        C  0.12119500  0.30222961  0.59328328     0.30100
C926        C  0.08626980  0.31363644  0.57479572    -0.20700
C927        C  0.06674307  0.28773799  0.54936344    -0.08700
C928        C  0.08078613  0.24901776  0.54517724     0.30200
F929        F  0.06154315  0.22290836  0.52186337    -0.19200
H930        H  0.12678341  0.20805183  0.55945529     0.18500
H931        H  0.07593275  0.34355174  0.57832071     0.18500
F932        F  0.14090035  0.32862340  0.61595738    -0.19200
C933        C  0.97298115  0.57616431  0.54378081    -0.20700
C934        C  0.00458050  0.60341500  0.54472977    -0.08700
C935        C  0.03578572  0.59738054  0.57066369     0.30100
C936        C  0.03499636  0.56482097  0.59575670    -0.20700
C937        C  0.00222993  0.53805741  0.59669345    -0.08700
C938        C  0.97177747  0.54389257  0.56904946     0.30200
F939        F  0.94007228  0.51873610  0.56705734    -0.19200
H940        H  0.94856932  0.58043899  0.52397240     0.18500
H941        H  0.06064818  0.56075097  0.61382667     0.18500
F942        F  0.06757186  0.62252567  0.57116821    -0.19200
C943        C  0.96498848  0.59589679  0.93291975    -0.20700
C944        C  0.99784363  0.60328089  0.95644056    -0.08700
C945        C  0.03022335  0.57806391  0.95469204     0.30100
C946        C  0.02986368  0.54634131  0.92898815    -0.20700
C947        C  0.99771285  0.53932169  0.90344380    -0.08700
C948        C  0.96416668  0.56399574  0.90748315     0.30200
F949        F  0.92930477  0.55662710  0.88925722    -0.19200
H950        H  0.93936812  0.61466079  0.93479755     0.18500
H951        H  0.05535526  0.52733249  0.92840795     0.18500
F952        F  0.06278766  0.58492692  0.97683144    -0.19200
C953        C  0.90608845  0.46681346  0.81839557    -0.20700
C954        C  0.90086454  0.49867441  0.79328167    -0.08700
C955        C  0.92760700  0.53075655  0.79439296     0.30100
C956        C  0.95838848  0.53129595  0.82137967    -0.20700
C957        C  0.96327669  0.50005414  0.84831539    -0.08700
C958        C  0.93723754  0.46667999  0.84486175     0.30200
F959        F  0.94237140  0.43264945  0.86485407    -0.19200
H960        H  0.88599453  0.44148100  0.81717624     0.18500
H961        H  0.97830760  0.55677410  0.82190427     0.18500
F962        F  0.92290453  0.56238389  0.77068869    -0.19200
C963        C  0.92520934  0.47177694  0.70423239    -0.20700
C964        C  0.89930293  0.50360103  0.70427043    -0.08700
C965        C  0.90545548  0.53468246  0.67802453     0.30100
C966        C  0.93745095  0.53436004  0.65262821    -0.20700
C967        C  0.96329313  0.50189220  0.65109459    -0.08700
C968        C  0.95663455  0.47069291  0.67805815     0.30200
F969        F  0.98037613  0.43870520  0.67880231    -0.19200
H970        H  0.92049446  0.44718454  0.72394402     0.18500
H971        H  0.94183216  0.56034493  0.63485457     0.18500
F972        F  0.88085809  0.56594518  0.67731570    -0.19200
C973        C  0.47734426  0.10361692  0.83113950    -0.20700
C974        C  0.49883242  0.10234853  0.79660643    -0.08700
C975        C  0.52312015  0.06960335  0.79050038     0.30100
C976        C  0.52299657  0.03784015  0.81691713    -0.20700
C977        C  0.49887181  0.03764251  0.85040761    -0.08700
C978        C  0.47902896  0.07326008  0.85844502     0.30200
F979        F  0.46181414  0.08009773  0.89292042    -0.19200
H980        H  0.45964982  0.12899246  0.83788180     0.18500
H981        H  0.54150148  0.01284878  0.81081785     0.18500
F982        F  0.54780933  0.06860745  0.75976023    -0.19200
C983        C  0.47238121  0.07180904  0.71203466    -0.20700
C984        C  0.49502456  0.10583020  0.70337388    -0.08700
C985        C  0.51296833  0.10819587  0.66668875     0.30100
C986        C  0.50942118  0.07695934  0.64062699    -0.20700
C987        C  0.49302330  0.04008537  0.65181038    -0.08700
C988        C  0.47150221  0.03935467  0.68705173     0.30200
F989        F  0.44996903  0.00711910  0.69819438    -0.19200
H990        H  0.45549138  0.07000184  0.73845367     0.18500
H991        H  0.52162116  0.08133605  0.61215194     0.18500
F992        F  0.53556164  0.13992255  0.65599169    -0.19200
C993        C  0.41520802  0.25034205  0.70492309    -0.20700
C994        C  0.42461030  0.21118199  0.71424474    -0.08700
C995        C  0.39669205  0.18076160  0.70737869     0.30100
C996        C  0.35955791  0.18948428  0.69210614    -0.20700
C997        C  0.34999552  0.22853543  0.68263900    -0.08700
C998        C  0.37822832  0.25899944  0.68868920     0.30200
F999        F  0.36948813  0.29712164  0.68027305    -0.19200
H1000       H  0.43622854  0.27410467  0.71076755     0.18500
H1001       H  0.33829547  0.16565300  0.68732736     0.18500
F1002       F  0.40489212  0.14273379  0.71668450    -0.19200
C1003       C  0.39097263  0.98290974  0.58200689    -0.20700
C1004       C  0.39291751  0.00348071  0.54680879    -0.08700
C1005       C  0.42607250  0.02837426  0.54022722     0.30100
C1006       C  0.45822489  0.02835234  0.56596417    -0.20700
C1007       C  0.45788377  0.00469380  0.59984176    -0.08700
C1008       C  0.42126228  0.98597691  0.60925063     0.30200
F1009       F  0.41380168  0.97052095  0.64461362    -0.19200
H1010       H  0.36538226  0.96463154  0.58922465     0.18500
H1011       H  0.48380918  0.04681032  0.55909136     0.18500
F1012       F  0.42731003  0.05338658  0.00949395    -0.19200
C1013       C  0.42597390  0.97808430  0.96378368    -0.20700
C1014       C  0.39262416  0.00032654  0.95385508    -0.08700
C1015       C  0.39170592  0.01731760  0.91666095     0.30100
C1016       C  0.42279447  0.01194072  0.89079288    -0.20700
C1017       C  0.45924113  0.99660139  0.90312487    -0.08700
C1018       C  0.45916658  0.97696832  0.93948900     0.30200
F1019       F  0.49104644  0.95679294  0.95218716    -0.19200
H1020       H  0.42679452  0.96184950  0.99065613     0.18500
H1021       H  0.41946972  0.02353971  0.86194753     0.18500
F1022       F  0.36196355  0.04127215  0.90545242    -0.19200
C1023       C  0.24361757  0.08310093  0.54597724    -0.20700
C1024       C  0.28301742  0.07038460  0.54618037    -0.08700
C1025       C  0.31189427  0.09261180  0.56622985     0.30100
C1026       C  0.30181782  0.12808575  0.58390644    -0.20700
C1027       C  0.26266627  0.14120811  0.58294176    -0.08700
C1028       C  0.23331731  0.11800323  0.56482121     0.30200
F1029       F  0.19510909  0.12983188  0.56424366    -0.19200
H1030       H  0.22107133  0.06634827  0.53056728     0.18500
H1031       H  0.32468072  0.14558345  0.59813687     0.18500
F1032       F  0.35028130  0.08138883  0.56667707    -0.19200
C1033       C  0.56597857  0.97660187  0.53996654    -0.20700
C1034       C  0.59896733  0.00167002  0.54590068    -0.08700
C1035       C  0.59949333  0.02515961  0.57932625     0.30100
C1036       C  0.56846465  0.02310216  0.60599374    -0.20700
C1037       C  0.53329432  0.00129286  0.59853504    -0.08700
C1038       C  0.53372805  0.97628247  0.56563823     0.30200
F1039       F  0.50281783  0.95135485  0.55797021    -0.19200
H1040       H  0.56530886  0.95672708  0.51559871     0.18500
H1041       H  0.57236919  0.03932780  0.63247046     0.18500
F1042       F  0.62993649  0.05083947  0.58637975    -0.19200
C1043       C  0.57010612  0.02577720  0.96007869    -0.20700
C1044       C  0.60171806  0.00044032  0.95312542    -0.08700
C1045       C  0.60167513  0.97962688  0.91797344     0.30100
C1046       C  0.57023074  0.98297731  0.89187833    -0.20700
C1047       C  0.53534596  0.00286703  0.90174067    -0.08700
C1048       C  0.53746877  0.02711075  0.93503797     0.30200
F1049       F  0.50740932  0.05119730  0.94450581    -0.19200
H1050       H  0.57038942  0.04461315  0.98527949     0.18500
H1051       H  0.57272071  0.96801532  0.86459557     0.18500
F1052       F  0.63112138  0.95447944  0.90905525    -0.19200
C1053       C  0.51259882  0.89500403  0.83358546    -0.20700
C1054       C  0.49445069  0.89773182  0.79713990    -0.08700
C1055       C  0.47141845  0.93122630  0.78970201     0.30100
C1056       C  0.47144933  0.96298745  0.81571947    -0.20700
C1057       C  0.49352531  0.96210256  0.85054945    -0.09900
C1058       C  0.50973955  0.92517996  0.86075230     0.30200
F1059       F  0.52361178  0.91783085  0.89669188    -0.19200
H1060       H  0.52920048  0.86919224  0.84166933     0.18500
H1061       H  0.45431416  0.98868692  0.80825775     0.18500
F1062       F  0.44774183  0.93295135  0.75817641    -0.19200
C1063       C  0.47964028  0.92942155  0.64317206    -0.20700
C1064       C  0.49997243  0.96501630  0.65152331    -0.08700
C1065       C  0.52485043  0.96485391  0.68473302     0.30100
C1066       C  0.52452303  0.93251795  0.71052403    -0.20700
C1067       C  0.49931054  0.89973005  0.70422862    -0.08700
C1068       C  0.47645164  0.89914703  0.67044120     0.30200
F1069       F  0.44882797  0.87038126  0.66469573    -0.19200
H1070       H  0.46366466  0.92554143  0.61643812     0.18500
H1071       H  0.54378557  0.93324775  0.73552137     0.18500
F1072       F  0.54895971  0.99626923  0.69282398    -0.19200
C1073       C  0.74012748  0.37869909  0.69262472    -0.20700
C1074       C  0.76710444  0.36046676  0.66819764    -0.08700
C1075       C  0.80293878  0.38002491  0.65889773     0.30100
C1076       C  0.81265321  0.41644780  0.67583495    -0.20700
C1077       C  0.78681201  0.43350188  0.70238886    -0.08700
C1078       C  0.74973034  0.41511585  0.70945846     0.30200
F1079       F  0.72383873  0.43130258  0.73445594    -0.19200
H1080       H  0.71217178  0.36416856  0.69952273     0.18500
H1081       H  0.84142501  0.42994681  0.67026237     0.18500
F1082       F  0.82912914  0.36312396  0.63463621    -0.19200
C1083       C  0.59919544  0.18444806  0.70555731    -0.20700
C1084       C  0.56965762  0.21277031  0.70911004    -0.08700
C1085       C  0.57638161  0.25115421  0.69471723     0.30100
C1086       C  0.61256139  0.26094384  0.67697847    -0.20700
C1087       C  0.64279519  0.23297115  0.67510041    -0.08700
C1088       C  0.63583383  0.19462783  0.68963171     0.30200
F1089       F  0.66434675  0.16685004  0.68803767    -0.19200
H1090       H  0.59428492  0.15468975  0.71648872     0.18500
H1091       H  0.61748951  0.29062519  0.66587331     0.18500
F1092       F  0.54851186  0.27925951  0.69883722    -0.19200
C1093       C  0.88724384  0.25611566  0.58506478    -0.20700
C1094       C  0.85215717  0.27371062  0.57189170    -0.08700
C1095       C  0.85463621  0.30287558  0.54286207     0.30100
C1096       C  0.89103688  0.31286834  0.52647747    -0.20700
C1097       C  0.92563308  0.29390677  0.53827500    -0.08700
C1098       C  0.92383819  0.26626063  0.56845433     0.30200
F1099       F  0.95717628  0.24829973  0.58095311    -0.19200
H1100       H  0.88630767  0.23420533  0.60793279     0.18500
H1101       H  0.89222135  0.33537898  0.00416223     0.18500
F1102       F  0.82209797  0.32244964  0.53071552    -0.19200
C1103       C  0.69599250  0.14245139  0.54889776    -0.20700
C1104       C  0.72654999  0.14544831  0.57633451    -0.08700
C1105       C  0.74611474  0.11068321  0.58769820     0.30100
C1106       C  0.73636205  0.07428756  0.57042705    -0.20700
C1107       C  0.70691082  0.07203998  0.54196457    -0.08700
C1108       C  0.68583360  0.10619157  0.53237897     0.30200
F1109       F  0.65531860  0.10445874  0.50688180    -0.19200
H1110       H  0.67949480  0.16826743  0.54035734     0.18500
H1111       H  0.75246994  0.04806165  0.57850633     0.18500
F1112       F  0.77520699  0.11191864  0.61470304    -0.19200
C1113       C  0.64489950  0.81093711  0.69681444    -0.20700
C1114       C  0.64928531  0.77451942  0.67815025    -0.08700
C1115       C  0.61578254  0.74947260  0.67373847     0.30100
C1116       C  0.57940827  0.75965484  0.69022396    -0.20700
C1117       C  0.57577216  0.79535880  0.71016528    -0.08700
C1118       C  0.60832181  0.82169956  0.71185097     0.30200
F1119       F  0.60471118  0.85782693  0.72819607    -0.19200
H1120       H  0.66979054  0.83147628  0.69921341     0.18500
H1121       H  0.55428824  0.73936894  0.68812303     0.18500
F1122       F  0.61849563  0.71470921  0.65466097    -0.19200
C1123       C  0.75996458  0.57898439  0.69094859    -0.20700
C1124       C  0.79333253  0.57564820  0.71461066    -0.08700
C1125       C  0.81748214  0.60912698  0.72160305     0.30100
C1126       C  0.80760455  0.64572994  0.70607558    -0.20700
C1127       C  0.77393327  0.64946726  0.68268359    -0.08700
C1128       C  0.75027093  0.61566001  0.67491427     0.30200
F1129       F  0.71734322  0.61822384  0.65262572    -0.19200
H1130       H  0.74108487  0.55336924  0.68554244     0.18500
H1131       H  0.82680292  0.67105378  0.71172371     0.18500
F1132       F  0.85085995  0.60628898  0.74324428    -0.19200
C1133       C  0.76288281  0.88487759  0.56621757    -0.20700
C1134       C  0.73479977  0.85935016  0.58320791    -0.08700
C1135       C  0.69477074  0.87002874  0.58418308     0.30100
C1136       C  0.68285626  0.90561588  0.56759046    -0.20700
C1137       C  0.71051502  0.93008354  0.54861832    -0.08700
C1138       C  0.75073262  0.91989492  0.54846587     0.30200
F1139       F  0.77784561  0.94311209  0.52987319    -0.19200
H1140       H  0.79381626  0.87691937  0.56538736     0.18500
H1141       H  0.65170119  0.91285653  0.56731201     0.18500
F1142       F  0.66713677  0.84549715  0.60038166    -0.19200
C1143       C  0.91881021  0.75272996  0.54339099    -0.20700
C1144       C  0.93492409  0.71515090  0.54994817    -0.08700
C1145       C  0.91652716  0.68957325  0.57674679     0.30100
C1146       C  0.88098790  0.70031510  0.59431467    -0.20700
C1147       C  0.86369485  0.73681392  0.58582360    -0.08700
C1148       C  0.88342954  0.76353883  0.56118004     0.30200
F1149       F  0.86760188  0.79926585  0.55305282    -0.19200
H1150       H  0.93257282  0.77283208  0.52279768     0.18500
H1151       H  0.86615595  0.67953765  0.61356496     0.18500
F1152       F  0.93102568  0.65304376  0.08354870    -0.19200
C1153       C  0.26628455  0.60922393  0.67938970    -0.20700
C1154       C  0.23989110  0.62869104  0.65488531    -0.08700
C1155       C  0.20151997  0.61286142  0.64942270     0.30100
C1156       C  0.18901342  0.57921586  0.67003402    -0.20700
C1157       C  0.21441781  0.56157865  0.69684833    -0.08700
C1158       C  0.25371237  0.57571782  0.70018189     0.30200
F1159       F  0.27917136  0.55828764  0.72507683    -0.19200
H1160       H  0.29589174  0.62123154  0.68399123     0.18500
H1161       H  0.15860743  0.56877048  0.66725090     0.18500
F1162       F  0.17539182  0.63152345  0.62608550    -0.19200
C1163       C  0.39684485  0.77143626  0.64285018    -0.20700
C1164       C  0.36752647  0.74990959  0.66273722    -0.08700
C1165       C  0.37564983  0.73590871  0.69975221     0.30100
C1166       C  0.41102935  0.74688909  0.71787580    -0.20700
C1167       C  0.43685376  0.77565292  0.70140154    -0.08700
C1168       C  0.43161385  0.78373627  0.66165310     0.30200
F1169       F  0.45950452  0.80253397  0.64011130    -0.19200
H1170       H  0.39208036  0.78024469  0.61318900     0.18500
H1171       H  0.41706582  0.73394529  0.74562765     0.18500
F1172       F  0.34922321  0.71204812  0.71853759    -0.19200
C1173       C  0.11940908  0.74323938  0.58012641    -0.20700
C1174       C  0.15309553  0.72507041  0.56482414    -0.08700
C1175       C  0.14827868  0.69870304  0.53384799     0.30100
C1176       C  0.11077147  0.69106288  0.51863262    -0.20700
C1177       C  0.07741066  0.71026110  0.53298643    -0.08700
C1178       C  0.08179606  0.73591228  0.56431796     0.30200
F1179       F  0.04988472  0.75428382  0.57915920    -0.19200
H1180       H  0.12219711  0.76330502  0.60422209     0.18500
H1181       H  0.10773694  0.66988666  0.99554109     0.18500
F1182       F  0.17952861  0.67936979  0.51877702    -0.19200
C1183       C  0.30911739  0.85633627  0.54709137    -0.20700
C1184       C  0.27751620  0.84925948  0.57255884    -0.08700
C1185       C  0.25365031  0.88127876  0.58323895     0.30100
C1186       C  0.26030436  0.91901315  0.56706698    -0.20700
C1187       C  0.29103388  0.92539707  0.54055256    -0.08700
C1188       C  0.31623809  0.89402844  0.53174599     0.30200
F1189       F  0.34753880  0.89978907  0.50775771    -0.19200
H1190       H  0.32858155  0.83259211  0.53913312     0.18500
H1191       H  0.24079235  0.94295065  0.57434475     0.18500
F1192       F  0.22302515  0.87584258  0.60807979    -0.19200
C1193       C  0.38257474  0.75806754  0.83228468    -0.20700
C1194       C  0.34936321  0.77906917  0.81930283    -0.08700
C1195       C  0.35509944  0.80917975  0.79151197     0.30100
C1196       C  0.39259987  0.81650810  0.77580152    -0.20700
C1197       C  0.42517939  0.79406091  0.78724686    -0.08700
C1198       C  0.42026617  0.76562993  0.81656205     0.30200
F1199       F  0.45136793  0.74364378  0.82825789    -0.19200
H1200       H  0.37921897  0.73512659  0.85396985     0.18500
H1201       H  0.39612394  0.83916382  0.75381453     0.18500
F1202       F  0.32457183  0.83181737  0.77955776    -0.19200
C1203       C  0.24041542  0.61944591  0.82857288    -0.20700
C1204       C  0.22282252  0.65356134  0.81314541    -0.08700
C1205       C  0.19602474  0.64930105  0.78224307     0.30100
C1206       C  0.18798320  0.61198384  0.76681360    -0.20700
C1207       C  0.20665985  0.57824101  0.78141672    -0.08700
C1208       C  0.23227475  0.58208238  0.81298433     0.30200
F1209       F  0.24978233  0.54980169  0.82838749    -0.19200
H1210       H  0.26060729  0.62164573  0.85276756     0.18500
H1211       H  0.16659712  0.60934159  0.74363248     0.18500
F1212       F  0.17661784  0.68085396  0.76758410    -0.19200
C1213       C  0.29558994  0.88116400  0.90938806    -0.20700
C1214       C  0.25817479  0.86372452  0.91539115    -0.08700
C1215       C  0.23154211  0.88128066  0.94078886     0.30100
C1216       C  0.24292906  0.91545379  0.96087967    -0.20700
C1217       C  0.28087031  0.93243037  0.95564680    -0.08700
C1218       C  0.30689561  0.91538030  0.92915852     0.30200
F1219       F  0.34419199  0.93010358  0.92430598    -0.19200
H1220       H  0.31654371  0.86750088  0.89017211     0.18500
H1221       H  0.22251820  0.92808479  0.48140344     0.18500
F1222       F  0.19514820  0.86475336  0.94690890    -0.19200
C1223       C  0.07842580  0.69328834  0.92060616    -0.20700
C1224       C  0.06268153  0.71861130  0.94832267    -0.08700
C1225       C  0.07998542  0.75640651  0.95349183     0.30100
C1226       C  0.11463084  0.76715724  0.93374208    -0.20700
C1227       C  0.13198130  0.74057403  0.90832247    -0.08700
C1228       C  0.11306852  0.70408227  0.90084616     0.30200
F1229       F  0.12935239  0.67807565  0.87605515    -0.19200
H1230       H  0.06559609  0.66402904  0.91633201     0.18500
H1231       H  0.12885331  0.79549230  0.93950640     0.18500
F1232       F  0.06447596  0.78199637  0.47910960    -0.19200
C1233       C  0.19632103  0.37761272  0.83934658    -0.20700
C1234       C  0.23463022  0.36339341  0.83347529    -0.08700
C1235       C  0.26250239  0.38683285  0.81351049     0.30100
C1236       C  0.25120914  0.42300917  0.79742796    -0.20700
C1237       C  0.21212435  0.43622058  0.80133442    -0.08700
C1238       C  0.18511444  0.41392280  0.82361320     0.30200
F1239       F  0.14697280  0.42537037  0.82711983    -0.19200
H1240       H  0.17468603  0.35989507  0.85510401     0.18500
H1241       H  0.27218101  0.43957736  0.77982575     0.18500
F1242       F  0.29981432  0.37376862  0.80779466    -0.19200
C1243       C  0.38827233  0.26169149  0.82617461    -0.20700
C1244       C  0.35741608  0.23370543  0.83065405    -0.08700
C1245       C  0.36351607  0.19414704  0.82039504     0.30100
C1246       C  0.39958815  0.18305616  0.80472031    -0.20700
C1247       C  0.42970188  0.21130351  0.79840657    -0.08700
C1248       C  0.42412998  0.25067676  0.80947474     0.30200
F1249       F  0.45267788  0.27858160  0.80261281    -0.19200
H1250       H  0.38401027  0.29222483  0.83421696     0.18500
H1251       H  0.40340665  0.15264765  0.79573083     0.18500
F1252       F  0.33452097  0.16628437  0.82557304    -0.19200
C1253       C  0.07585228  0.26627747  0.93428963    -0.20700
C1254       C  0.07561359  0.29467724  0.96350064    -0.08700
C1255       C  0.11083425  0.31502555  0.97303118     0.30100
C1256       C  0.14631402  0.30494532  0.95575759    -0.20700
C1257       C  0.14726524  0.27534876  0.92762134    -0.08700
C1258       C  0.11144834  0.25672328  0.91616429     0.30200
F1259       F  0.11082835  0.22897686  0.88806241    -0.19200
H1260       H  0.04862426  0.25115575  0.92600967     0.18500
H1261       H  0.17306009  0.32092912  0.96402577     0.18500
F1262       F  0.11080243  0.34530097  0.49861729    -0.19200
C1263       C  0.25332379  0.07836099  0.93682819    -0.20700
C1264       C  0.28664580  0.07527927  0.96077988    -0.08700
C1265       C  0.31170236  0.10841752  0.96583739     0.30100
C1266       C  0.30228591  0.14461632  0.94918855    -0.20700
C1267       C  0.26837561  0.14842391  0.92608270    -0.08700
C1268       C  0.24427945  0.11466708  0.91926513     0.30200
F1269       F  0.21148252  0.11700238  0.89675906    -0.19200
H1270       H  0.23392481  0.05289898  0.93244184     0.18500
H1271       H  0.32200891  0.16975284  0.95404233     0.18500
F1272       F  0.34538365  0.10576827  0.98702351    -0.19200
C1273       C  0.62000466  0.25417686  0.82295782    -0.20700
C1274       C  0.64845133  0.22433430  0.82433998    -0.08700
C1275       C  0.63835343  0.18627894  0.81107379     0.30100
C1276       C  0.60039535  0.17826859  0.79686805    -0.20700
C1277       C  0.57280657  0.20856528  0.79344713    -0.08700
C1278       C  0.58257412  0.24656691  0.80681694     0.30200
F1279       F  0.55628615  0.27631190  0.80346321    -0.19200
H1280       H  0.62728457  0.28364721  0.83315273     0.18500
H1281       H  0.59306965  0.14876564  0.78673805     0.18500
F1282       F  0.66515977  0.15683354  0.81186698    -0.19200
C1283       C  0.75819916  0.38293488  0.83290550    -0.20700
C1284       C  0.77534247  0.34835072  0.81843785    -0.08700
C1285       C  0.80340845  0.35188857  0.78861755     0.30100
C1286       C  0.81401987  0.38905508  0.77402770    -0.20700
C1287       C  0.79550558  0.42329739  0.78720141    -0.08700
C1288       C  0.76806495  0.42013162  0.81731880     0.30200
F1289       F  0.74999910  0.45278656  0.83081618    -0.19200
H1290       H  0.73679946  0.38116804  0.85608078     0.18500
H1291       H  0.83618556  0.39104859  0.75156041     0.18500
F1292       F  0.82111914  0.31962434  0.77376310    -0.19200
C1293       C  0.76446734  0.11905450  0.94591114    -0.20700
C1294       C  0.73803582  0.13730163  0.92054930    -0.08700
C1295       C  0.70158440  0.11869716  0.91211277     0.30100
C1296       C  0.69105073  0.08287729  0.92984046    -0.20700
C1297       C  0.71640195  0.06556059  0.95686795    -0.08700
C1298       C  0.75382031  0.08324897  0.96393920     0.30200
F1299       F  0.77947248  0.06644745  0.98906326    -0.19200
H1300       H  0.79286157  0.13295581  0.95234440     0.18500
H1301       H  0.66201579  0.06997418  0.92429423     0.18500
F1302       F  0.67546525  0.13607891  0.88791166    -0.19200
C1303       C  0.88203019  0.23752949  0.94141148    -0.20700
C1304       C  0.86443744  0.26306359  0.91483952    -0.08700
C1305       C  0.88316678  0.29936119  0.90574449     0.30100
C1306       C  0.91821001  0.31078059  0.92459398    -0.20700
C1307       C  0.93469702  0.28623853  0.95288857    -0.08700
C1308       C  0.91714103  0.24879730  0.96010810     0.30200
F1309       F  0.93300123  0.22391652  0.98653759    -0.19200
H1310       H  0.86787343  0.20942835  0.94856453     0.18500
H1311       H  0.93109078  0.33978396  0.91882289     0.18500
F1312       F  0.86648396  0.32452469  0.88004445    -0.19200
C1313       C  0.80458951  0.62409574  0.83739141    -0.20700
C1314       C  0.76616883  0.63840331  0.83193343    -0.08700
C1315       C  0.73827511  0.61537466  0.81169513     0.30100
C1316       C  0.74948260  0.57964643  0.79504337    -0.20700
C1317       C  0.78845389  0.56610658  0.79890435    -0.08700
C1318       C  0.81560862  0.58794008  0.82142845     0.30200
F1319       F  0.85353084  0.57593159  0.82552509    -0.19200
H1320       H  0.82626107  0.64134097  0.85348806     0.18500
H1321       H  0.72825040  0.56332703  0.77758941     0.18500
F1322       F  0.70077594  0.62828703  0.80665260    -0.19200
C1323       C  0.61104928  0.73767087  0.81960364    -0.20700
C1324       C  0.64055607  0.76575792  0.82901601    -0.08700
C1325       C  0.63350784  0.80612521  0.82279431     0.30100
C1326       C  0.59781563  0.81815411  0.80661530    -0.20700
C1327       C  0.56931606  0.79008945  0.79505950    -0.08700
C1328       C  0.57578716  0.74972893  0.80200211     0.30200
F1329       F  0.54853160  0.72212728  0.79075709    -0.19200
H1330       H  0.61595182  0.70647028  0.82458364     0.18500
H1331       H  0.59313026  0.84937055  0.80143744     0.18500
F1332       F  0.66124349  0.83392355  0.83246767    -0.19200
C1333       C  0.88393387  0.74381538  0.91862501    -0.20700
C1334       C  0.84893708  0.72504665  0.93197390    -0.08700
C1335       C  0.85163124  0.69630413  0.96131835     0.30100
C1336       C  0.88826734  0.68751802  0.97745177    -0.20700
C1337       C  0.92280560  0.70744601  0.96518905    -0.08700
C1338       C  0.92065798  0.73499551  0.93502490     0.30200
F1339       F  0.95388285  0.75388579  0.92204278    -0.19200
H1340       H  0.88288445  0.76552480  0.89560967     0.18500
H1341       H  0.88971739  0.66505857  0.99975927     0.18500
F1342       F  0.81911751  0.67595440  0.97395483    -0.19200
C1343       C  0.74654801  0.88331891  0.92132934    -0.20700
C1344       C  0.72438240  0.84883603  0.93057010    -0.08700
C1345       C  0.69227480  0.85199573  0.95618471     0.30100
C1346       C  0.68287973  0.88851697  0.97204099    -0.20700
C1347       C  0.70571755  0.92259367  0.96378768    -0.08700
C1348       C  0.73748120  0.91987558  0.93799438     0.30200
F1349       F  0.76036401  0.95223088  0.92986029    -0.19200
H1350       H  0.77133267  0.88185710  0.90164999     0.18500
H1351       H  0.65774643  0.89017332  0.99127827     0.18500
F1352       F  0.66933549  0.81997701  0.96548070    -0.19200
loop_ 
_geom_bond_atom_site_label_1 
_geom_bond_atom_site_label_2 
_geom_bond_distance 
_geom_bond_site_symmetry_2 
_ccdc_geom_bond_type 
O1           Ni9   1.919       .  S
O1           C11   1.280       .  A
O2           Ni9   1.918       .  S
O2           C12   1.283       .  A
O3           Ni9   1.921       .  S
O3           C13   1.283       .  A
O4           Ni9   1.917       .  S
O4           C14   1.279       .  A
O5          Ni10   1.929       .  S
O5           C14   1.283       .  A
O6          Ni10   1.927       .  S
O6           C13   1.283       .  A
O7          Ni10   1.910       .  S
O7           C12   1.280       .  A
O8          Ni10   1.915       .  S
O8           C11   1.281       .  A
Ni9         Ni10   2.388       .  S
C11         C648   1.470       .  S
C12         C658   1.480       .  S
C13         C668   1.489       .  S
C14         C638   1.473       .  S
O15         Ni23   1.920       .  S
O15          C25   1.280       .  A
O16         Ni23   1.920       .  S
O16          C26   1.282       .  A
O17         Ni23   1.917       .  S
O17          C27   1.282       .  A
O18         Ni23   1.917       .  S
O18          C28   1.279       .  A
O19         Ni24   1.922       .  S
O19          C28   1.282       .  A
O20         Ni24   1.916       .  S
O20          C27   1.281       .  A
O21         Ni24   1.917       .  S
O21          C26   1.280       .  A
O22         Ni24   1.917       .  S
O22          C25   1.281       .  A
Ni23        Ni24   2.391       .  S
C25         C628   1.467       .  S
C26         C598   1.473       .  S
C27         C608   1.482       .  S
C28         C618   1.468       .  S
O29         Ni37   1.911       .  S
O29          C39   1.282       .  A
O30         Ni37   1.913       .  S
O30          C40   1.279       .  A
O31         Ni37   1.913       .  S
O31          C41   1.278       .  A
O32         Ni37   1.914       .  S
O32          C42   1.282       .  A
O33         Ni38   1.925       .  S
O33          C42   1.282       .  A
O34         Ni38   1.927       .  S
O34          C41   1.283       .  A
O35         Ni38   1.915       .  S
O35          C40   1.281       .  A
O36         Ni38   1.912       .  S
O36          C39   1.279       .  A
Ni37        Ni38   2.390       .  S
C39         C581   1.476       .  S
C40         C568   1.467       .  S
C41         C558   1.468       .  S
C42         C591   1.482       .  S
O43         Ni51   1.913       .  S
O43          C53   1.280       .  A
O44         Ni51   1.913       .  S
O44          C54   1.279       .  A
O45         Ni51   1.919       .  S
O45          C55   1.281       .  A
O46         Ni51   1.924       .  S
O46          C56   1.282       .  A
O47         Ni52   1.920       .  S
O47          C56   1.283       .  A
O48         Ni52   1.918       .  S
O48          C55   1.279       .  A
O49         Ni52   1.920       .  S
O49          C54   1.280       .  A
O50         Ni52   1.922       .  S
O50          C53   1.283       .  A
Ni51        Ni52   2.389       .  S
C53         C528   1.483       .  S
C54         C538   1.464       .  S
C55         C551   1.466       .  S
C56         C518   1.488       .  S
O57         Ni65   1.913       .  S
O57          C67   1.279       .  A
O58         Ni65   1.921       .  S
O58          C68   1.281       .  A
O59         Ni65   1.917       .  S
O59          C69   1.281       .  A
O60         Ni65   1.919       .  S
O60          C70   1.282       .  A
O61         Ni66   1.910       .  S
O61          C70   1.278       .  A
O62         Ni66   1.910       .  S
O62          C69   1.281       .  A
O63         Ni66   1.924       .  S
O63          C68   1.284       .  A
O64         Ni66   1.929       .  S
O64          C67   1.282       .  A
Ni65        Ni66   2.389       .  S
C67         C478   1.469       .  S
C68         C508   1.485       .  S
C69         C498   1.479       .  S
C70         C488   1.466       .  S
O71         Ni79   1.912       .  S
O71          C81   1.279       .  A
O72         Ni79   1.914       .  S
O72          C82   1.280       .  A
O73         Ni79   1.928       .  S
O73          C83   1.283       .  A
O74         Ni79   1.923       .  S
O74          C84   1.282       .  A
O75         Ni80   1.920       .  S
O75          C84   1.283       .  A
O76         Ni80   1.919       .  S
O76          C83   1.279       .  A
O77         Ni80   1.916       .  S
O77          C82   1.280       .  A
O78         Ni80   1.918       .  S
O78          C81   1.283       .  A
Ni79        Ni80   2.391       .  S
C81         C451   1.475       .  S
C82         C458   1.464       .  S
C83         C471   1.472       .  S
C84         C438   1.482       .  S
O85         Ni93   1.914       .  S
O85          C95   1.282       .  A
O86         Ni93   1.917       .  S
O86          C96   1.280       .  A
O87         Ni93   1.912       .  S
O87          C97   1.278       .  A
O88         Ni93   1.916       .  S
O88          C98   1.282       .  A
O89         Ni94   1.927       .  S
O89          C98   1.283       .  A
O90         Ni94   1.927       .  S
O90          C97   1.283       .  A
O91         Ni94   1.914       .  S
O91          C96   1.281       .  A
O92         Ni94   1.913       .  S
O92          C95   1.280       .  A
Ni93        Ni94   2.389       .  S
C95         C418   1.479       .  S
C96         C411   1.471       .  S
C97         C398   1.468       .  S
C98         C428   1.487       .  S
C99         H100   1.102       .  S
C99         C105   1.524       .  S
C99         C104   1.552       .  S
C99         C103   1.558       .  S
C101        H102   1.109       .  S
C101        C107   1.530       .  S
C101        C106   1.544       .  S
C101        C108   1.535       .  S
C103        C106   1.392       .  D
C103        C391   1.499       .  S
C104        C107   1.386       .  D
C104        C491   1.519       .  S
C105        C108   1.365       .  D
C105        C441   1.485       .  S
C106        C378   1.508       .  S
C107        C521   1.489       .  S
C108        C651   1.476       .  S
C109        H110   1.108       .  S
C109        C115   1.537   1_565  S
C109        C114   1.533       .  S
C109        C113   1.552       .  S
C111        H112   1.110   1_565  S
C111        C117   1.533       .  S
C111        C116   1.548   1_565  S
C111        C118   1.532   1_565  S
C113        C792   1.396   1_565  D
C113        C368   1.504   1_565  S
C114        C793   1.368       .  D
C114        C671   1.490       .  S
C115        C794   1.372       .  D
C115        C621   1.486       .  S
C116        C789   1.396   1_544  D
C116        C358   1.506       .  S
C117        C790   1.368   1_554  D
C117        C461   1.477       .  S
C118        C791   1.373   1_554  D
C118        C431   1.487       .  S
C119        H120   1.106       .  S
C119        C125   1.531   1_545  S
C119        C124   1.533       .  S
C119        C123   1.553       .  S
C121        H122   1.109   1_545  S
C121        C127   1.533       .  S
C121        C126   1.549       .  S
C121        C128   1.537   1_545  S
C123        C802   1.395       .  D
C123        C338   1.508       .  S
C124        C803   1.369       .  D
C124        C588   1.483       .  S
C125        C804   1.370       .  D
C125        C541   1.486       .  S
C126        C799   1.395   1_554  D
C126        C328   1.501       .  S
C127        C800   1.369   1_554  D
C127        C348   1.486       .  S
C128        C801   1.370   1_554  D
C128        C511   1.488       .  S
C129        H130   1.108       .  S
C129        C135   1.530       .  S
C129        C134   1.535       .  S
C129        C133   1.550       .  S
C131        H132   1.110       .  S
C131        C137   1.526       .  S
C131        C136   1.550       .  S
C131        C138   1.530       .  S
C133        C136   1.396       .  D
C133        C308   1.503       .  S
C134        C137   1.368       .  D
C134        C408   1.477       .  S
C135        C138   1.364       .  D
C135        C318   1.481       .  S
C136        C298   1.503       .  S
C137        C601   1.477       .  S
C138        C571   1.473       .  S
C139        C311   1.566       .  S
C139        C331   1.567       .  S
C139        C361   1.574       .  S
C139        C388   1.565   1_545  S
C140        C301   1.572   1_565  S
C140        C341   1.565       .  S
C140        C371   1.566   1_565  S
C140        C381   1.570       .  S
C141        H142   1.111       .  S
C141        C147   1.537       .  S
C141        C146   1.532       .  S
C141        C145   1.538       .  S
C143        H144   1.111       .  S
C143        C149   1.537       .  S
C143        C148   1.538       .  S
C143        C150   1.535       .  S
C145        C148   1.376       .  D
C145        C288   1.482       .  S
C146        C149   1.372       .  D
C146        C448   1.477       .  S
C147        C150   1.376       .  D
C147        C401   1.487       .  S
C148        C278   1.477       .  S
C149        C641   1.488       .  S
C150        C611   1.486       .  S
C151        H152   1.112       .  S
C151        C157   1.528       .  S
C151        C156   1.532   1_655  S
C151        C155   1.536       .  S
C153        H154   1.111       .  S
C153        C159   1.536       .  S
C153        C158   1.539       .  S
C153        C160   1.541   1_455  S
C155        C834   1.375   1_655  D
C155        C268   1.479       .  S
C156        C835   1.377       .  D
C156        C548   1.485       .  S
C157        C836   1.374       .  D
C157        C661   1.479       .  S
C158        C831   1.375   1_454  D
C158        C258   1.482       .  S
C159        C832   1.377   1_554  D
C159        C501   1.482       .  S
C160        C833   1.374   1_554  D
C160        C468   1.489       .  S
C161        H162   1.111       .  S
C161        C167   1.532       .  S
C161        C166   1.537   1_455  S
C161        C165   1.538       .  S
C163        H164   1.111       .  S
C163        C169   1.531       .  S
C163        C168   1.537       .  S
C163        C170   1.536   1_655  S
C165        C844   1.373   1_455  D
C165        C238   1.481       .  S
C166        C845   1.376       .  D
C166        C631   1.487       .  S
C167        C846   1.375       .  D
C167        C578   1.476       .  S
C168        C841   1.373   1_654  D
C168        C231   1.477       .  S
C169        C842   1.376   1_554  D
C169        C421   1.478       .  S
C170        C843   1.375   1_554  D
C170        C251   1.488       .  S
C171        H172   1.111       .  S
C171        C177   1.532       .  S
C171        C176   1.528       .  S
C171        C175   1.540       .  S
C173        H174   1.111       .  S
C173        C179   1.541       .  S
C173        C178   1.538       .  S
C173        C180   1.538       .  S
C175        C178   1.377       .  D
C175        C208   1.480       .  S
C176        C179   1.370       .  D
C176        C218   1.479       .  S
C177        C180   1.376       .  D
C177        C481   1.484       .  S
C178        C198   1.485       .  S
C179        C561   1.483       .  S
C180        C531   1.483       .  S
C181        C211   1.560       .  S
C181        C228   1.558   1_455  S
C181        C261   1.561       .  S
C181        C291   1.561   1_455  S
C182        C201   1.565   1_655  S
C182        C241   1.559   1_655  S
C182        C271   1.564       .  S
C182        C281   1.558       .  S
O183       Ni191   1.923       .  S
O183        C193   1.282       .  A
O184       Ni191   1.915       .  S
O184        C194   1.281       .  A
O185       Ni191   1.918       .  S
O185        C195   1.280       .  A
O186       Ni191   1.923       .  S
O186        C196   1.282       .  A
O187       Ni192   1.922       .  S
O187        C196   1.280       .  A
O188       Ni192   1.922       .  S
O188        C195   1.282       .  A
O189       Ni192   1.919       .  S
O189        C194   1.282       .  A
O190       Ni192   1.918       .  S
O190        C193   1.280       .  A
Ni191      Ni192   2.390       .  S
C193        C351   1.470       .  S
C194        C221   1.479       .  S
C195        C321   1.473       .  S
C196        C248   1.473       .  S
C197        C198   1.397       .  A
C197        C202   1.397       .  A
C197        H204   1.083       .  S
C198        C199   1.403       .  A
C199        C200   1.401       .  A
C199        F206   1.357       .  S
C200        C201   1.417       .  A
C200        H205   1.078       .  S
C201        C202   1.422       .  A
C202        F203   1.357       .  S
C207        C208   1.399       .  A
C207        C212   1.399       .  A
C207        H214   1.083       .  S
C208        C209   1.399       .  A
C209        C210   1.395       .  A
C209        F216   1.357       .  S
C210        C211   1.417       .  A
C210        H215   1.078       .  S
C211        C212   1.420       .  A
C212        F213   1.357       .  S
C217        C218   1.402       .  A
C217        C222   1.394       .  A
C217        H224   1.083       .  S
C218        C219   1.400       .  A
C219        C220   1.401       .  A
C219        F226   1.357       .  S
C220        C221   1.408       .  A
C220        H225   1.083       .  S
C221        C222   1.408       .  A
C222        F223   1.358       .  S
C227        C228   1.415       .  A
C227        C232   1.395       .  A
C227        H234   1.080       .  S
C228        C229   1.421   1_655  A
C229        C230   1.398       .  A
C229        F236   1.358       .  S
C230        C231   1.397   1_455  A
C230        H235   1.084       .  S
C231        C232   1.399       .  A
C232        F233   1.356       .  S
C237        C238   1.399   1_655  A
C237        C242   1.399       .  A
C237        H244   1.083       .  S
C238        C239   1.399       .  A
C239        C240   1.396       .  A
C239        F246   1.357       .  S
C240        C241   1.416       .  A
C240        H245   1.079       .  S
C241        C242   1.421   1_455  A
C242        F243   1.357       .  S
C247        C248   1.401       .  A
C247        C252   1.402       .  A
C247        H254   1.083       .  S
C248        C249   1.405       .  A
C249        C250   1.400       .  A
C249        F256   1.358       .  S
C250        C251   1.403       .  A
C250        H255   1.083       .  S
C251        C252   1.408       .  A
C252        F253   1.357       .  S
C257        C258   1.398   1_655  A
C257        C262   1.397       .  A
C257        H264   1.083       .  S
C258        C259   1.401       .  A
C259        C260   1.400       .  A
C259        F266   1.357       .  S
C260        C261   1.417       .  A
C260        H265   1.079       .  S
C261        C262   1.421   1_455  A
C262        F263   1.357       .  S
C267        C268   1.396       .  A
C267        C272   1.398       .  A
C267        H274   1.084       .  S
C268        C269   1.399   1_655  A
C269        C270   1.399       .  A
C269        F276   1.358       .  S
C270        C271   1.418   1_455  A
C270        H275   1.083       .  S
C271        C272   1.426       .  A
C272        F273   1.355       .  S
C277        C278   1.396       .  A
C277        C282   1.395       .  A
C277        H284   1.084       .  S
C278        C279   1.399       .  A
C279        C280   1.398       .  A
C279        F286   1.357       .  S
C280        C281   1.419       .  A
C280        H285   1.084       .  S
C281        C282   1.423       .  A
C282        F283   1.354       .  S
C287        C288   1.398       .  A
C287        C292   1.400       .  A
C287        H294   1.084       .  S
C288        C289   1.400       .  A
C289        C290   1.396       .  A
C289        F296   1.355       .  S
C290        C291   1.415       .  A
C290        H295   1.079       .  S
C291        C292   1.422       .  A
C292        F293   1.357       .  S
C297        C298   1.404       .  A
C297        C302   1.395       .  A
C297        H304   1.081       .  S
C298        C299   1.406       .  A
C299        C300   1.408       .  A
C299        F306   1.357       .  S
C300        C301   1.421       .  A
C300        H305   1.082       .  S
C301        C302   1.417       .  A
C302        F303   1.355       .  S
C307        C308   1.401       .  A
C307        C312   1.402       .  A
C307        H314   1.082       .  S
C308        C309   1.413       .  A
C309        C310   1.398       .  A
C309        F316   1.356       .  S
C310        C311   1.408       .  A
C310        H315   1.080       .  S
C311        C312   1.424       .  A
C312        F313   1.354       .  S
C317        C318   1.403       .  A
C317        C322   1.403       .  A
C317        H324   1.082       .  S
C318        C319   1.404       .  A
C319        C320   1.396       .  A
C319        F326   1.357       .  S
C320        C321   1.402       .  A
C320        H325   1.083       .  S
C321        C322   1.407       .  A
C322        F323   1.357       .  S
C327        C328   1.404   1_565  A
C327        C332   1.395       .  A
C327        H334   1.082       .  S
C328        C329   1.407       .  A
C329        C330   1.405       .  A
C329       F1012   1.357       .  S
C330        C331   1.419       .  A
C330        H335   1.083       .  S
C331        C332   1.417   1_545  A
C332        F333   1.354       .  S
F336       C1005   1.357       .  S
C337        C338   1.406   1_565  A
C337        C342   1.405       .  A
C337        H344   1.081       .  S
C338        C339   1.411       .  A
C339        C340   1.398       .  A
C339        F346   1.356       .  S
C340        C341   1.408   1_545  A
C340        H345   1.080       .  S
C341        C342   1.424       .  A
C342        F343   1.356       .  S
C347        C348   1.405       .  A
C347        C352   1.402       .  A
C347        H354   1.083       .  S
C348        C349   1.406       .  A
C349        C350   1.398       .  A
C349        F356   1.356       .  S
C350        C351   1.402       .  A
C350        H355   1.084       .  S
C351        C352   1.403       .  A
C352        F353   1.357       .  S
C357        C358   1.403   1_565  A
C357        C362   1.408       .  A
C357        H364   1.083       .  S
C358        C359   1.410       .  A
C359        C360   1.400       .  A
C359        F366   1.356       .  S
C360        C361   1.411       .  A
C360        H365   1.080       .  S
C361        C362   1.425   1_545  A
C362        F363   1.357       .  S
C367        C368   1.402       .  A
C367        C372   1.403       .  A
C367        H374   1.085       .  S
C368        C369   1.412   1_545  A
C369        C370   1.400       .  A
C369        F376   1.357       .  S
C370        C371   1.410   1_565  A
C370        H375   1.081       .  S
C371        C372   1.422       .  A
C372        F373   1.354       .  S
C377        C378   1.408       .  A
C377        C382   1.398       .  A
C377        H384   1.081       .  S
C378        C379   1.407       .  A
C379        C380   1.407       .  A
C379        F386   1.356       .  S
C380        C381   1.420       .  A
C380        H385   1.082       .  S
C381        C382   1.415       .  A
C382        F383   1.355       .  S
C387        C388   1.406       .  A
C387        C392   1.394       .  A
C387        H394   1.080       .  S
C388        C389   1.425       .  A
C389        C390   1.409       .  A
C389        F396   1.357       .  S
C390        C391   1.403       .  A
C390        H395   1.084       .  S
C391        C392   1.403       .  A
C392        F393   1.351       .  S
C397        C398   1.399       .  A
C397        C402   1.398       .  A
C397        H404   1.083       .  S
C398        C399   1.406       .  A
C399        C400   1.401       .  A
C399        F406   1.358       .  S
C400        C401   1.404       .  A
C400        H405   1.083       .  S
C401        C402   1.409       .  A
C402        F403   1.357       .  S
C407        C408   1.400       .  A
C407        C412   1.393       .  A
C407        H414   1.084       .  S
C408        C409   1.403       .  A
C409        C410   1.402       .  A
C409        F416   1.357       .  S
C410        C411   1.405       .  A
C410        H415   1.083       .  S
C411        C412   1.405       .  A
C412        F413   1.358       .  S
C417        C418   1.409       .  A
C417        C422   1.401       .  A
C417        H424   1.083       .  S
C418        C419   1.408       .  A
C419        C420   1.391       .  A
C419        F426   1.357       .  S
C420        C421   1.401       .  A
C420       H1101   1.084       .  S
C421        C422   1.401       .  A
C422        F423   1.357       .  S
H425       C1096   1.084       .  S
C427        C428   1.406       .  A
C427        C432   1.393       .  A
C427        H434   1.083       .  S
C428        C429   1.412       .  A
C429        C430   1.405       .  A
C429        F436   1.357       .  S
C430        C431   1.402       .  A
C430        H435   1.084       .  S
C431        C432   1.405       .  A
C432        F433   1.358       .  S
C437        C438   1.405       .  A
C437        C442   1.396       .  A
C437        H444   1.084       .  S
C438        C439   1.409       .  A
C439        C440   1.405       .  A
C439        F446   1.357       .  S
C440        C441   1.402       .  A
C440        H445   1.084       .  S
C441        C442   1.403       .  A
C442        F443   1.357       .  S
C447        C448   1.399       .  A
C447        C452   1.400       .  A
C447        H454   1.083       .  S
C448        C449   1.405       .  A
C449        C450   1.393       .  A
C449        F456   1.358       .  S
C450        C451   1.403       .  A
C450        H455   1.083       .  S
C451        C452   1.410       .  A
C452        F453   1.357       .  S
C457        C458   1.400       .  A
C457        C462   1.399       .  A
C457        H464   1.083       .  S
C458        C459   1.405       .  A
C459        C460   1.396       .  A
C459        F466   1.358       .  S
C460        C461   1.400       .  A
C460        H465   1.084       .  S
C461        C462   1.406       .  A
C462        F463   1.357       .  S
C467        C468   1.408       .  A
C467        C472   1.401       .  A
C467        H474   1.084       .  S
C468        C469   1.405       .  A
C469        C470   1.401       .  A
C469       F1152   1.357       .  S
C470        C471   1.404       .  A
C470        H475   1.084       .  S
C471        C472   1.402       .  A
C472        F473   1.357       .  S
F476       C1145   1.357       .  S
C477        C478   1.401       .  A
C477        C482   1.400       .  A
C477        H484   1.084       .  S
C478        C479   1.406       .  A
C479        C480   1.400       .  A
C479        F486   1.358       .  S
C480        C481   1.402       .  A
C480        H485   1.084       .  S
C481        C482   1.407       .  A
C482        F483   1.357       .  S
C487        C488   1.399       .  A
C487        C492   1.400       .  A
C487        H494   1.083       .  S
C488        C489   1.396       .  A
C489        C490   1.394       .  A
C489        F496   1.358       .  S
C490        C491   1.414       .  A
C490        H495   1.077       .  S
C491        C492   1.417       .  A
C492        F493   1.351       .  S
C497        C498   1.408       .  A
C497        C502   1.401       .  A
C497        H504   1.083       .  S
C498        C499   1.408       .  A
C499        C500   1.391       .  A
C499        F506   1.358       .  S
C500        C501   1.403       .  A
C500       H1181   1.083   1_554  S
C501        C502   1.401       .  A
C502        F503   1.357       .  S
H505       C1176   1.083       .  S
C507        C508   1.403       .  A
C507        C512   1.396       .  A
C507        H514   1.084       .  S
C508        C509   1.412       .  A
C509        C510   1.406       .  A
C509        F516   1.357       .  S
C510        C511   1.401       .  A
C510        H515   1.084       .  S
C511        C512   1.406       .  A
C512        F513   1.357       .  S
C517        C518   1.409       .  A
C517        C522   1.404       .  A
C517        H524   1.083       .  S
C518        C519   1.410       .  A
C519        C520   1.397       .  A
C519        F526   1.357       .  S
C520        C521   1.403       .  A
C520        H525   1.084       .  S
C521        C522   1.404       .  A
C522        F523   1.357       .  S
C527        C528   1.409       .  A
C527        C532   1.400       .  A
C527        H534   1.083       .  S
C528        C529   1.409       .  A
C529        C530   1.395       .  A
C529        F536   1.358       .  S
C530        C531   1.405       .  A
C530        H535   1.083       .  S
C531        C532   1.400       .  A
C532        F533   1.357       .  S
C537        C538   1.400       .  A
C537        C542   1.395       .  A
C537        H544   1.084       .  S
C538        C539   1.402       .  A
C539        C540   1.401       .  A
C539        F546   1.357       .  S
C540        C541   1.406       .  A
C540       H1221   1.083       .  S
C541        C542   1.406       .  A
C542        F543   1.356       .  S
H545       C1216   1.084       .  S
C547        C548   1.403       .  A
C547        C552   1.399       .  A
C547        H554   1.084       .  S
C548        C549   1.408       .  A
C549        C550   1.398       .  A
C549       F1232   1.357       .  S
C550        C551   1.400       .  A
C550        H555   1.083       .  S
C551        C552   1.404       .  A
C552        F553   1.358       .  S
F556       C1225   1.357       .  S
C557        C558   1.403       .  A
C557        C562   1.399       .  A
C557        H564   1.084       .  S
C558        C559   1.402       .  A
C559        C560   1.400       .  A
C559        F566   1.357       .  S
C560        C561   1.407       .  A
C560        H565   1.083       .  S
C561        C562   1.404       .  A
C562        F563   1.357       .  S
C567        C568   1.403       .  A
C567        C572   1.400       .  A
C567        H574   1.083       .  S
C568        C569   1.405       .  A
C569        C570   1.393       .  A
C569        F576   1.358       .  S
C570        C571   1.399       .  A
C570        H575   1.086       .  S
C571        C572   1.403       .  A
C572        F573   1.357       .  S
C577        C578   1.401       .  A
C577        C582   1.401       .  A
C577        H584   1.083       .  S
C578        C579   1.403       .  A
C579        C580   1.389       .  A
C579       F1262   1.357       .  S
C580        C581   1.403       .  A
C580        H585   1.083       .  S
C581        C582   1.411       .  A
C582        F583   1.357       .  S
F586       C1255   1.357       .  S
C587        C588   1.403       .  A
C587        C592   1.406       .  A
C587        H594   1.084       .  S
C588        C589   1.403       .  A
C589        C590   1.392       .  A
C589        F596   1.357       .  S
C590        C591   1.404       .  A
C590        H595   1.084       .  S
C591        C592   1.411       .  A
C592        F593   1.357       .  S
C597        C598   1.405       .  A
C597        C602   1.401       .  A
C597        H604   1.083       .  S
C598        C599   1.405       .  A
C599        C600   1.395       .  A
C599        F606   1.357       .  S
C600        C601   1.401       .  A
C600        H605   1.084       .  S
C601        C602   1.402       .  A
C602        F603   1.357       .  S
C607        C608   1.409       .  A
C607        C612   1.401       .  A
C607        H614   1.083       .  S
C608        C609   1.408       .  A
C609        C610   1.393       .  A
C609        F616   1.358       .  S
C610        C611   1.404       .  A
C610        H615   1.083       .  S
C611        C612   1.401       .  A
C612        F613   1.357       .  S
C617        C618   1.401       .  A
C617        C622   1.401       .  A
C617        H624   1.083       .  S
C618        C619   1.403       .  A
C619        C620   1.396       .  A
C619        F626   1.356       .  S
C620        C621   1.402       .  A
C620        H625   1.083       .  S
C621        C622   1.410       .  A
C622        F623   1.357       .  S
C627        C628   1.399       .  A
C627        C632   1.398       .  A
C627        H634   1.084       .  S
C628        C629   1.405       .  A
C629        C630   1.400       .  A
C629        F636   1.358       .  S
C630        C631   1.403       .  A
C630        H635   1.083       .  S
C631        C632   1.410       .  A
C632        F633   1.357       .  S
C637        C638   1.404       .  A
C637        C642   1.401       .  A
C637        H644   1.084       .  S
C638        C639   1.402       .  A
C639        C640   1.400       .  A
C639        F646   1.357       .  S
C640        C641   1.406       .  A
C640        H645   1.083       .  S
C641        C642   1.406       .  A
C642        F643   1.357       .  S
C647        C648   1.403       .  A
C647        C652   1.403       .  A
C647        H654   1.083       .  S
C648        C649   1.405       .  A
C649        C650   1.394       .  A
C649        F656   1.358       .  S
C650        C651   1.399       .  A
C650        H655   1.084       .  S
C651        C652   1.405       .  A
C652        F653   1.357       .  S
C657        C658   1.409       .  A
C657        C662   1.399       .  A
C657        H664   1.083       .  S
C658        C659   1.408       .  A
C659        C660   1.393       .  A
C659        F666   1.357       .  S
C660        C661   1.402       .  A
C660        H665   1.083       .  S
C661        C662   1.401       .  A
C662        F663   1.357       .  S
C667        C668   1.410       .  A
C667        C672   1.406       .  A
C667        H674   1.083       .  S
C668        C669   1.409       .  A
C669        C670   1.397       .  A
C669        F676   1.358       .  S
C670        C671   1.403       .  A
C670        H675   1.083       .  S
C671        C672   1.403       .  A
C672        F673   1.357       .  S
O677       Ni685   1.919       .  S
O677        C687   1.280       .  A
O678       Ni685   1.917       .  S
O678        C688   1.283       .  A
O679       Ni685   1.921       .  S
O679        C689   1.283       .  A
O680       Ni685   1.917       .  S
O680        C690   1.279       .  A
O681       Ni686   1.929       .  S
O681        C690   1.283       .  A
O682       Ni686   1.927       .  S
O682        C689   1.283       .  A
O683       Ni686   1.910       .  S
O683        C688   1.280       .  A
O684       Ni686   1.915       .  S
O684        C687   1.281       .  A
Ni685      Ni686   2.388       .  S
C687       C1324   1.470       .  S
C688       C1334   1.480       .  S
C689       C1344   1.490       .  S
C690       C1314   1.473       .  S
O691       Ni699   1.920       .  S
O691        C701   1.280       .  A
O692       Ni699   1.920       .  S
O692        C702   1.282       .  A
O693       Ni699   1.917       .  S
O693        C703   1.282       .  A
O694       Ni699   1.917       .  S
O694        C704   1.279       .  A
O695       Ni700   1.922       .  S
O695        C704   1.282       .  A
O696       Ni700   1.916       .  S
O696        C703   1.281       .  A
O697       Ni700   1.917       .  S
O697        C702   1.280       .  A
O698       Ni700   1.917       .  S
O698        C701   1.281       .  A
Ni699      Ni700   2.391       .  S
C701       C1304   1.467       .  S
C702       C1274   1.473       .  S
C703       C1284   1.482       .  S
C704       C1294   1.468       .  S
O705       Ni713   1.911       .  S
O705        C715   1.282       .  A
O706       Ni713   1.913       .  S
O706        C716   1.279       .  A
O707       Ni713   1.913       .  S
O707        C717   1.278       .  A
O708       Ni713   1.914       .  S
O708        C718   1.282       .  A
O709       Ni714   1.925       .  S
O709        C718   1.282       .  A
O710       Ni714   1.927       .  S
O710        C717   1.283       .  A
O711       Ni714   1.915       .  S
O711        C716   1.281       .  A
O712       Ni714   1.913       .  S
O712        C715   1.279       .  A
Ni713      Ni714   2.390       .  S
C715       C1257   1.476       .  S
C716       C1244   1.467       .  S
C717       C1234   1.468       .  S
C718       C1267   1.482       .  S
O719       Ni727   1.913       .  S
O719        C729   1.280       .  A
O720       Ni727   1.913       .  S
O720        C730   1.279       .  A
O721       Ni727   1.919       .  S
O721        C731   1.281       .  A
O722       Ni727   1.924       .  S
O722        C732   1.282       .  A
O723       Ni728   1.921       .  S
O723        C732   1.283       .  A
O724       Ni728   1.918       .  S
O724        C731   1.279       .  A
O725       Ni728   1.920       .  S
O725        C730   1.280       .  A
O726       Ni728   1.922       .  S
O726        C729   1.283       .  A
Ni727      Ni728   2.389       .  S
C729       C1204   1.483       .  S
C730       C1214   1.464       .  S
C731       C1227   1.466       .  S
C732       C1194   1.488       .  S
O733       Ni741   1.913       .  S
O733        C743   1.279       .  A
O734       Ni741   1.921       .  S
O734        C744   1.281       .  A
O735       Ni741   1.917       .  S
O735        C745   1.281       .  A
O736       Ni741   1.919       .  S
O736        C746   1.282       .  A
O737       Ni742   1.911       .  S
O737        C746   1.278       .  A
O738       Ni742   1.910       .  S
O738        C745   1.281       .  A
O739       Ni742   1.924       .  S
O739        C744   1.284       .  A
O740       Ni742   1.929       .  S
O740        C743   1.282       .  A
Ni741      Ni742   2.389       .  S
C743       C1154   1.469       .  S
C744       C1184   1.485       .  S
C745       C1174   1.479       .  S
C746       C1164   1.466       .  S
O747       Ni755   1.912       .  S
O747        C757   1.279       .  A
O748       Ni755   1.914       .  S
O748        C758   1.280       .  A
O749       Ni755   1.928       .  S
O749        C759   1.283       .  A
O750       Ni755   1.923       .  S
O750        C760   1.282       .  A
O751       Ni756   1.920       .  S
O751        C760   1.283       .  A
O752       Ni756   1.919       .  S
O752        C759   1.279       .  A
O753       Ni756   1.916       .  S
O753        C758   1.280       .  A
O754       Ni756   1.918       .  S
O754        C757   1.283       .  A
Ni755      Ni756   2.391       .  S
C757       C1127   1.475       .  S
C758       C1134   1.464       .  S
C759       C1147   1.472       .  S
C760       C1114   1.482       .  S
O761       Ni769   1.914       .  S
O761        C771   1.282       .  A
O762       Ni769   1.917       .  S
O762        C772   1.280       .  A
O763       Ni769   1.912       .  S
O763        C773   1.278       .  A
O764       Ni769   1.916       .  S
O764        C774   1.282       .  A
O765       Ni770   1.927       .  S
O765        C774   1.283       .  A
O766       Ni770   1.927       .  S
O766        C773   1.283       .  A
O767       Ni770   1.914       .  S
O767        C772   1.281       .  A
O768       Ni770   1.913       .  S
O768        C771   1.280       .  A
Ni769      Ni770   2.389       .  S
C771       C1094   1.479       .  S
C772       C1087   1.471       .  S
C773       C1074   1.468       .  S
C774       C1104   1.487       .  S
C775        H776   1.102       .  S
C775        C781   1.524       .  S
C775        C780   1.552       .  S
C775        C779   1.558       .  S
C777        H778   1.109       .  S
C777        C783   1.531       .  S
C777        C782   1.544       .  S
C777        C784   1.535       .  S
C779        C782   1.392       .  D
C779       C1067   1.499       .  S
C780        C783   1.386       .  D
C780       C1167   1.519       .  S
C781        C784   1.365       .  D
C781       C1117   1.485       .  S
C782       C1054   1.508       .  S
C783       C1197   1.489       .  S
C784       C1327   1.476       .  S
C785        H786   1.108       .  S
C785        C791   1.537   1_565  S
C785        C790   1.533       .  S
C785        C789   1.552       .  S
C787        H788   1.110   1_565  S
C787        C793   1.533       .  S
C787        C792   1.548   1_565  S
C787        C794   1.532   1_565  S
C789       C1044   1.504   1_565  S
C790       C1347   1.491       .  S
C791       C1297   1.486       .  S
C792       C1034   1.506       .  S
C793       C1137   1.476       .  S
C794       C1107   1.486       .  S
C795        H796   1.106       .  S
C795        C801   1.530   1_545  S
C795        C800   1.533       .  S
C795        C799   1.553       .  S
C797        H798   1.109   1_545  S
C797        C803   1.533       .  S
C797        C802   1.549       .  S
C797        C804   1.537   1_545  S
C799       C1014   1.508       .  S
C800       C1264   1.483       .  S
C801       C1217   1.486       .  S
C802       C1004   1.501       .  S
C803       C1024   1.486       .  S
C804       C1187   1.488       .  S
C805        H806   1.108       .  S
C805        C811   1.530       .  S
C805        C810   1.535       .  S
C805        C809   1.550       .  S
C807        H808   1.110       .  S
C807        C813   1.526       .  S
C807        C812   1.550       .  S
C807        C814   1.530       .  S
C809        C812   1.396       .  D
C809        C984   1.503       .  S
C810        C813   1.368       .  D
C810       C1084   1.477       .  S
C811        C814   1.364       .  D
C811        C994   1.481       .  S
C812        C974   1.503       .  S
C813       C1277   1.477       .  S
C814       C1247   1.473       .  S
C815        C987   1.566       .  S
C815       C1007   1.567       .  S
C815       C1037   1.574       .  S
C815       C1064   1.565   1_545  S
C816        C977   1.572   1_565  S
C816       C1017   1.565       .  S
C816       C1047   1.566   1_565  S
C816       C1057   1.570       .  S
C817        H818   1.111       .  S
C817        C823   1.537       .  S
C817        C822   1.532       .  S
C817        C821   1.538       .  S
C819        H820   1.111       .  S
C819        C825   1.537       .  S
C819        C824   1.538       .  S
C819        C826   1.535       .  S
C821        C824   1.376       .  D
C821        C964   1.482       .  S
C822        C825   1.372       .  D
C822       C1124   1.477       .  S
C823        C826   1.376       .  D
C823       C1077   1.487       .  S
C824        C954   1.477       .  S
C825       C1317   1.488       .  S
C826       C1287   1.486       .  S
C827        H828   1.112       .  S
C827        C833   1.528       .  S
C827        C832   1.532   1_655  S
C827        C831   1.536       .  S
C829        H830   1.111       .  S
C829        C835   1.536       .  S
C829        C834   1.539       .  S
C829        C836   1.541   1_455  S
C831        C944   1.479       .  S
C832       C1224   1.485       .  S
C833       C1337   1.479       .  S
C834        C934   1.482       .  S
C835       C1177   1.482       .  S
C836       C1144   1.489       .  S
C837        H838   1.111       .  S
C837        C843   1.532       .  S
C837        C842   1.537   1_455  S
C837        C841   1.538       .  S
C839        H840   1.111       .  S
C839        C845   1.531       .  S
C839        C844   1.537       .  S
C839        C846   1.536   1_655  S
C841        C914   1.481       .  S
C842       C1307   1.487       .  S
C843       C1254   1.476       .  S
C844        C907   1.477       .  S
C845       C1097   1.478       .  S
C846        C927   1.488       .  S
C847        H848   1.111       .  S
C847        C853   1.532       .  S
C847        C852   1.528       .  S
C847        C851   1.540       .  S
C849        H850   1.111       .  S
C849        C855   1.541       .  S
C849        C854   1.538       .  S
C849        C856   1.538       .  S
C851        C854   1.377       .  D
C851        C884   1.480       .  S
C852        C855   1.370       .  D
C852        C894   1.479       .  S
C853        C856   1.376       .  D
C853       C1157   1.484       .  S
C854        C874   1.485       .  S
C855       C1237   1.483       .  S
C856       C1207   1.483       .  S
C857        C887   1.560       .  S
C857        C904   1.558   1_455  S
C857        C937   1.561       .  S
C857        C967   1.561   1_455  S
C858        C877   1.565   1_655  S
C858        C917   1.559   1_655  S
C858        C947   1.564       .  S
C858        C957   1.558       .  S
O859       Ni867   1.922       .  S
O859        C869   1.282       .  A
O860       Ni867   1.915       .  S
O860        C870   1.281       .  A
O861       Ni867   1.918       .  S
O861        C871   1.280       .  A
O862       Ni867   1.923       .  S
O862        C872   1.282       .  A
O863       Ni868   1.922       .  S
O863        C872   1.280       .  A
O864       Ni868   1.922       .  S
O864        C871   1.282       .  A
O865       Ni868   1.918       .  S
O865        C870   1.282       .  A
O866       Ni868   1.918       .  S
O866        C869   1.280       .  A
Ni867      Ni868   2.390       .  S
C869       C1027   1.470       .  S
C870        C897   1.479       .  S
C871        C997   1.473       .  S
C872        C924   1.472       .  S
C873        C874   1.397       .  A
C873        C878   1.397       .  A
C873        H880   1.083       .  S
C874        C875   1.403       .  A
C875        C876   1.401       .  A
C875        F882   1.357       .  S
C876        C877   1.417       .  A
C876        H881   1.078       .  S
C877        C878   1.422       .  A
C878        F879   1.357       .  S
C883        C884   1.399       .  A
C883        C888   1.399       .  A
C883        H890   1.083       .  S
C884        C885   1.399       .  A
C885        C886   1.395       .  A
C885        F892   1.357       .  S
C886        C887   1.417       .  A
C886        H891   1.078       .  S
C887        C888   1.420       .  A
C888        F889   1.357       .  S
C893        C894   1.402       .  A
C893        C898   1.394       .  A
C893        H900   1.083       .  S
C894        C895   1.400       .  A
C895        C896   1.401       .  A
C895        F902   1.357       .  S
C896        C897   1.408       .  A
C896        H901   1.083       .  S
C897        C898   1.408       .  A
C898        F899   1.358       .  S
C903        C904   1.415       .  A
C903        C908   1.395       .  A
C903        H910   1.080       .  S
C904        C905   1.421   1_655  A
C905        C906   1.398       .  A
C905        F912   1.358       .  S
C906        C907   1.397   1_455  A
C906        H911   1.084       .  S
C907        C908   1.399       .  A
C908        F909   1.356       .  S
C913        C914   1.399   1_655  A
C913        C918   1.399       .  A
C913        H920   1.083       .  S
C914        C915   1.399       .  A
C915        C916   1.396       .  A
C915        F922   1.357       .  S
C916        C917   1.416       .  A
C916        H921   1.079       .  S
C917        C918   1.421   1_455  A
C918        F919   1.357       .  S
C923        C924   1.401       .  A
C923        C928   1.402       .  A
C923        H930   1.083       .  S
C924        C925   1.405       .  A
C925        C926   1.400       .  A
C925        F932   1.358       .  S
C926        C927   1.403       .  A
C926        H931   1.083       .  S
C927        C928   1.408       .  A
C928        F929   1.357       .  S
C933        C934   1.398   1_655  A
C933        C938   1.396       .  A
C933        H940   1.083       .  S
C934        C935   1.401       .  A
C935        C936   1.400       .  A
C935        F942   1.357       .  S
C936        C937   1.417       .  A
C936        H941   1.079       .  S
C937        C938   1.421   1_455  A
C938        F939   1.357       .  S
C943        C944   1.396       .  A
C943        C948   1.398       .  A
C943        H950   1.084       .  S
C944        C945   1.399   1_655  A
C945        C946   1.399       .  A
C945        F952   1.358       .  S
C946        C947   1.418   1_455  A
C946        H951   1.083       .  S
C947        C948   1.426       .  A
C948        F949   1.355       .  S
C953        C954   1.396       .  A
C953        C958   1.395       .  A
C953        H960   1.084       .  S
C954        C955   1.400       .  A
C955        C956   1.398       .  A
C955        F962   1.357       .  S
C956        C957   1.419       .  A
C956        H961   1.084       .  S
C957        C958   1.423       .  A
C958        F959   1.354       .  S
C963        C964   1.398       .  A
C963        C968   1.399       .  A
C963        H970   1.084       .  S
C964        C965   1.400       .  A
C965        C966   1.396       .  A
C965        F972   1.356       .  S
C966        C967   1.415       .  A
C966        H971   1.079       .  S
C967        C968   1.422       .  A
C968        F969   1.357       .  S
C973        C974   1.404       .  A
C973        C978   1.395       .  A
C973        H980   1.081       .  S
C974        C975   1.406       .  A
C975        C976   1.409       .  A
C975        F982   1.357       .  S
C976        C977   1.421       .  A
C976        H981   1.082       .  S
C977        C978   1.417       .  A
C978        F979   1.355       .  S
C983        C984   1.401       .  A
C983        C988   1.402       .  A
C983        H990   1.082       .  S
C984        C985   1.413       .  A
C985        C986   1.398       .  A
C985        F992   1.356       .  S
C986        C987   1.408       .  A
C986        H991   1.080       .  S
C987        C988   1.424       .  A
C988        F989   1.354       .  S
C993        C994   1.403       .  A
C993        C998   1.403       .  A
C993       H1000   1.082       .  S
C994        C995   1.404       .  A
C995        C996   1.396       .  A
C995       F1002   1.357       .  S
C996        C997   1.402       .  A
C996       H1001   1.083       .  S
C997        C998   1.407       .  A
C998        F999   1.357       .  S
C1003      C1004   1.404   1_565  A
C1003      C1008   1.395       .  A
C1003      H1010   1.082       .  S
C1004      C1005   1.407       .  A
C1005      C1006   1.405       .  A
C1006      C1007   1.419       .  A
C1006      H1011   1.083       .  S
C1007      C1008   1.417   1_545  A
C1008      F1009   1.354       .  S
C1013      C1014   1.406   1_565  A
C1013      C1018   1.405       .  A
C1013      H1020   1.081       .  S
C1014      C1015   1.411       .  A
C1015      C1016   1.398       .  A
C1015      F1022   1.356       .  S
C1016      C1017   1.408   1_545  A
C1016      H1021   1.080       .  S
C1017      C1018   1.423       .  A
C1018      F1019   1.356       .  S
C1023      C1024   1.405       .  A
C1023      C1028   1.402       .  A
C1023      H1030   1.083       .  S
C1024      C1025   1.406       .  A
C1025      C1026   1.398       .  A
C1025      F1032   1.356       .  S
C1026      C1027   1.402       .  A
C1026      H1031   1.084       .  S
C1027      C1028   1.403       .  A
C1028      F1029   1.357       .  S
C1033      C1034   1.403   1_565  A
C1033      C1038   1.408       .  A
C1033      H1040   1.083       .  S
C1034      C1035   1.410       .  A
C1035      C1036   1.400       .  A
C1035      F1042   1.356       .  S
C1036      C1037   1.411       .  A
C1036      H1041   1.080       .  S
C1037      C1038   1.425   1_545  A
C1038      F1039   1.357       .  S
C1043      C1044   1.402       .  A
C1043      C1048   1.403       .  A
C1043      H1050   1.085       .  S
C1044      C1045   1.412   1_545  A
C1045      C1046   1.400       .  A
C1045      F1052   1.357       .  S
C1046      C1047   1.410   1_565  A
C1046      H1051   1.081       .  S
C1047      C1048   1.422       .  A
C1048      F1049   1.354       .  S
C1053      C1054   1.408       .  A
C1053      C1058   1.398       .  A
C1053      H1060   1.081       .  S
C1054      C1055   1.407       .  A
C1055      C1056   1.407       .  A
C1055      F1062   1.356       .  S
C1056      C1057   1.420       .  A
C1056      H1061   1.082       .  S
C1057      C1058   1.415       .  A
C1058      F1059   1.355       .  S
C1063      C1064   1.406       .  A
C1063      C1068   1.394       .  A
C1063      H1070   1.080       .  S
C1064      C1065   1.425       .  A
C1065      C1066   1.409       .  A
C1065      F1072   1.357       .  S
C1066      C1067   1.403       .  A
C1066      H1071   1.084       .  S
C1067      C1068   1.403       .  A
C1068      F1069   1.351       .  S
C1073      C1074   1.399       .  A
C1073      C1078   1.399       .  A
C1073      H1080   1.083       .  S
C1074      C1075   1.406       .  A
C1075      C1076   1.401       .  A
C1075      F1082   1.358       .  S
C1076      C1077   1.404       .  A
C1076      H1081   1.083       .  S
C1077      C1078   1.409       .  A
C1078      F1079   1.357       .  S
C1083      C1084   1.400       .  A
C1083      C1088   1.393       .  A
C1083      H1090   1.083       .  S
C1084      C1085   1.403       .  A
C1085      C1086   1.402       .  A
C1085      F1092   1.357       .  S
C1086      C1087   1.405       .  A
C1086      H1091   1.083       .  S
C1087      C1088   1.405       .  A
C1088      F1089   1.358       .  S
C1093      C1094   1.409       .  A
C1093      C1098   1.401       .  A
C1093      H1100   1.083       .  S
C1094      C1095   1.408       .  A
C1095      C1096   1.391       .  A
C1095      F1102   1.357       .  S
C1096      C1097   1.401       .  A
C1097      C1098   1.401       .  A
C1098      F1099   1.357       .  S
C1103      C1104   1.406       .  A
C1103      C1108   1.393       .  A
C1103      H1110   1.083       .  S
C1104      C1105   1.412       .  A
C1105      C1106   1.405       .  A
C1105      F1112   1.357       .  S
C1106      C1107   1.402       .  A
C1106      H1111   1.084       .  S
C1107      C1108   1.405       .  A
C1108      F1109   1.358       .  S
C1113      C1114   1.405       .  A
C1113      C1118   1.396       .  A
C1113      H1120   1.084       .  S
C1114      C1115   1.409       .  A
C1115      C1116   1.405       .  A
C1115      F1122   1.357       .  S
C1116      C1117   1.402       .  A
C1116      H1121   1.084       .  S
C1117      C1118   1.403       .  A
C1118      F1119   1.357       .  S
C1123      C1124   1.399       .  A
C1123      C1128   1.400       .  A
C1123      H1130   1.083       .  S
C1124      C1125   1.405       .  A
C1125      C1126   1.393       .  A
C1125      F1132   1.358       .  S
C1126      C1127   1.403       .  A
C1126      H1131   1.083       .  S
C1127      C1128   1.410       .  A
C1128      F1129   1.357       .  S
C1133      C1134   1.400       .  A
C1133      C1138   1.399       .  A
C1133      H1140   1.083       .  S
C1134      C1135   1.405       .  A
C1135      C1136   1.396       .  A
C1135      F1142   1.358       .  S
C1136      C1137   1.400       .  A
C1136      H1141   1.084       .  S
C1137      C1138   1.406       .  A
C1138      F1139   1.357       .  S
C1143      C1144   1.408       .  A
C1143      C1148   1.401       .  A
C1143      H1150   1.084       .  S
C1144      C1145   1.405       .  A
C1145      C1146   1.401       .  A
C1146      C1147   1.404       .  A
C1146      H1151   1.084       .  S
C1147      C1148   1.402       .  A
C1148      F1149   1.357       .  S
C1153      C1154   1.401       .  A
C1153      C1158   1.400       .  A
C1153      H1160   1.084       .  S
C1154      C1155   1.406       .  A
C1155      C1156   1.400       .  A
C1155      F1162   1.358       .  S
C1156      C1157   1.402       .  A
C1156      H1161   1.084       .  S
C1157      C1158   1.407       .  A
C1158      F1159   1.357       .  S
C1163      C1164   1.399       .  A
C1163      C1168   1.400       .  A
C1163      H1170   1.083       .  S
C1164      C1165   1.396       .  A
C1165      C1166   1.394       .  A
C1165      F1172   1.358       .  S
C1166      C1167   1.414       .  A
C1166      H1171   1.077       .  S
C1167      C1168   1.417       .  A
C1168      F1169   1.351       .  S
C1173      C1174   1.408       .  A
C1173      C1178   1.401       .  A
C1173      H1180   1.083       .  S
C1174      C1175   1.408       .  A
C1175      C1176   1.391       .  A
C1175      F1182   1.358       .  S
C1176      C1177   1.403       .  A
C1177      C1178   1.401       .  A
C1178      F1179   1.357       .  S
C1183      C1184   1.404       .  A
C1183      C1188   1.396       .  A
C1183      H1190   1.084       .  S
C1184      C1185   1.412       .  A
C1185      C1186   1.406       .  A
C1185      F1192   1.357       .  S
C1186      C1187   1.401       .  A
C1186      H1191   1.084       .  S
C1187      C1188   1.406       .  A
C1188      F1189   1.357       .  S
C1193      C1194   1.409       .  A
C1193      C1198   1.404       .  A
C1193      H1200   1.083       .  S
C1194      C1195   1.410       .  A
C1195      C1196   1.397       .  A
C1195      F1202   1.357       .  S
C1196      C1197   1.403       .  A
C1196      H1201   1.084       .  S
C1197      C1198   1.404       .  A
C1198      F1199   1.357       .  S
C1203      C1204   1.409       .  A
C1203      C1208   1.400       .  A
C1203      H1210   1.083       .  S
C1204      C1205   1.409       .  A
C1205      C1206   1.395       .  A
C1205      F1212   1.358       .  S
C1206      C1207   1.405       .  A
C1206      H1211   1.083       .  S
C1207      C1208   1.400       .  A
C1208      F1209   1.357       .  S
C1213      C1214   1.400       .  A
C1213      C1218   1.396       .  A
C1213      H1220   1.084       .  S
C1214      C1215   1.402       .  A
C1215      C1216   1.401       .  A
C1215      F1222   1.357       .  S
C1216      C1217   1.406       .  A
C1217      C1218   1.406       .  A
C1218      F1219   1.356       .  S
C1223      C1224   1.403       .  A
C1223      C1228   1.399       .  A
C1223      H1230   1.084       .  S
C1224      C1225   1.408       .  A
C1225      C1226   1.398       .  A
C1226      C1227   1.400       .  A
C1226      H1231   1.083       .  S
C1227      C1228   1.404       .  A
C1228      F1229   1.358       .  S
C1233      C1234   1.403       .  A
C1233      C1238   1.399       .  A
C1233      H1240   1.084       .  S
C1234      C1235   1.401       .  A
C1235      C1236   1.400       .  A
C1235      F1242   1.357       .  S
C1236      C1237   1.407       .  A
C1236      H1241   1.083       .  S
C1237      C1238   1.404       .  A
C1238      F1239   1.357       .  S
C1243      C1244   1.403       .  A
C1243      C1248   1.400       .  A
C1243      H1250   1.083       .  S
C1244      C1245   1.405       .  A
C1245      C1246   1.393       .  A
C1245      F1252   1.358       .  S
C1246      C1247   1.399       .  A
C1246      H1251   1.086       .  S
C1247      C1248   1.403       .  A
C1248      F1249   1.357       .  S
C1253      C1254   1.401       .  A
C1253      C1258   1.401       .  A
C1253      H1260   1.083       .  S
C1254      C1255   1.403       .  A
C1255      C1256   1.389       .  A
C1256      C1257   1.403       .  A
C1256      H1261   1.083       .  S
C1257      C1258   1.411       .  A
C1258      F1259   1.357       .  S
C1263      C1264   1.403       .  A
C1263      C1268   1.406       .  A
C1263      H1270   1.084       .  S
C1264      C1265   1.403       .  A
C1265      C1266   1.392       .  A
C1265      F1272   1.357       .  S
C1266      C1267   1.404       .  A
C1266      H1271   1.084       .  S
C1267      C1268   1.411       .  A
C1268      F1269   1.357       .  S
C1273      C1274   1.405       .  A
C1273      C1278   1.401       .  A
C1273      H1280   1.083       .  S
C1274      C1275   1.405       .  A
C1275      C1276   1.395       .  A
C1275      F1282   1.357       .  S
C1276      C1277   1.401       .  A
C1276      H1281   1.084       .  S
C1277      C1278   1.402       .  A
C1278      F1279   1.357       .  S
C1283      C1284   1.409       .  A
C1283      C1288   1.401       .  A
C1283      H1290   1.083       .  S
C1284      C1285   1.408       .  A
C1285      C1286   1.393       .  A
C1285      F1292   1.358       .  S
C1286      C1287   1.404       .  A
C1286      H1291   1.083       .  S
C1287      C1288   1.401       .  A
C1288      F1289   1.357       .  S
C1293      C1294   1.401       .  A
C1293      C1298   1.401       .  A
C1293      H1300   1.083       .  S
C1294      C1295   1.403       .  A
C1295      C1296   1.396       .  A
C1295      F1302   1.356       .  S
C1296      C1297   1.402       .  A
C1296      H1301   1.083       .  S
C1297      C1298   1.410       .  A
C1298      F1299   1.357       .  S
C1303      C1304   1.399       .  A
C1303      C1308   1.398       .  A
C1303      H1310   1.084       .  S
C1304      C1305   1.405       .  A
C1305      C1306   1.400       .  A
C1305      F1312   1.358       .  S
C1306      C1307   1.403       .  A
C1306      H1311   1.083       .  S
C1307      C1308   1.410       .  A
C1308      F1309   1.357       .  S
C1313      C1314   1.404       .  A
C1313      C1318   1.401       .  A
C1313      H1320   1.084       .  S
C1314      C1315   1.402       .  A
C1315      C1316   1.400       .  A
C1315      F1322   1.357       .  S
C1316      C1317   1.406       .  A
C1316      H1321   1.083       .  S
C1317      C1318   1.406       .  A
C1318      F1319   1.357       .  S
C1323      C1324   1.403       .  A
C1323      C1328   1.403       .  A
C1323      H1330   1.083       .  S
C1324      C1325   1.405       .  A
C1325      C1326   1.394       .  A
C1325      F1332   1.358       .  S
C1326      C1327   1.399       .  A
C1326      H1331   1.084       .  S
C1327      C1328   1.405       .  A
C1328      F1329   1.357       .  S
C1333      C1334   1.409       .  A
C1333      C1338   1.399       .  A
C1333      H1340   1.083       .  S
C1334      C1335   1.408       .  A
C1335      C1336   1.393       .  A
C1335      F1342   1.357       .  S
C1336      C1337   1.402       .  A
C1336      H1341   1.083       .  S
C1337      C1338   1.401       .  A
C1338      F1339   1.357       .  S
C1343      C1344   1.410       .  A
C1343      C1348   1.406       .  A
C1343      H1350   1.083       .  S
C1344      C1345   1.409       .  A
C1345      C1346   1.397       .  A
C1345      F1352   1.358       .  S
C1346      C1347   1.403       .  A
C1346      H1351   1.083       .  S
C1347      C1348   1.403       .  A
C1348      F1349   1.357       .  S
