geometry optimzed in LAMMPS
_audit_creation_date              2020-11-30 
_audit_creation_method            'lammps2cif' 
_symmetry_space_group_name_H-M    'P1' 
_symmetry_Int_Tables_number       1 
_symmetry_cell_setting            triclinic 
loop_ 
_symmetry_equiv_pos_as_xyz 
  x,y,z 
_cell_length_a                    43.76445111 
_cell_length_b                    43.88568167051648 
_cell_length_c                    50.90423574305022 
_cell_angle_alpha                 90.07513428695819 
_cell_angle_beta                  89.99392613971996 
_cell_angle_gamma                 119.90688427647409 
loop_ 
_atom_site_label 
_atom_site_type_symbol 
_atom_site_fract_x 
_atom_site_fract_y 
_atom_site_fract_z 
_atom_site_charge 
O1          O  0.02299452  0.13916002  0.33044006    -0.86500
C2          C  0.09905649  0.20376942  0.27802408     0.89500
Mg3        Mg  0.01349942  0.15726441  0.36716889     1.58100
O4          O  0.11429914  0.14083205  0.30879273    -0.86200
O5          O  0.03040571  0.09876118  0.31102204    -0.73500
C6          C  0.16912018  0.23539093  0.42180142     0.94600
O7          O  0.05247070  0.22174752  0.31957558    -0.73400
O8          O  0.14237778  0.23921909  0.41953710    -0.80900
Mg9        Mg  0.02561154  0.16948155  0.29675730     1.58000
C10         C  0.21328165  0.17486425  0.34288701     0.94500
O11         O  0.49598488  0.12063459  0.27329448    -0.79100
H12         H  0.09943884  0.09103864  0.31777984    -0.04500
C13         C  0.16169762  0.23991176  0.34312948     0.89500
O14         O  0.04357601  0.13480768  0.38934311    -0.73600
O15         O  0.07608878  0.17505496  0.28648305    -0.86400
O16         O  0.19952309  0.17500073  0.32088379    -0.79200
C17         C  0.15028851  0.15679140  0.24500949     0.94600
C18         C  0.50420744  0.11212594  0.25176476     0.94500
Mg19       Mg  0.14796136  0.17464649  0.37417588     1.58000
O20         O  0.17622960  0.21788897  0.40528602    -0.79100
O21         O  0.12038335  0.12510370  0.34830900    -0.73400
O22         O  0.11672543  0.14280072  0.24622509    -0.79200
O23         O  0.47274287  0.16327087  0.30720532    -0.80900
O24         O  0.06005158  0.20220221  0.42199187    -0.79200
C25         C  0.11118970  0.11797463  0.32442537     0.88900
O26         O  0.09903847  0.17262046  0.38303213    -0.86400
O27         O  0.15392192  0.20875179  0.34147547    -0.86500
O28         O  0.14452030  0.24959478  0.35768815    -0.73600
Mg29       Mg  0.07395592  0.12574783  0.27910469     1.58000
O30         O  0.17040976  0.17451419  0.26384428    -0.80900
H31         H  0.99527481  0.08843237  0.34057820    -0.04700
O32         O  0.06032775  0.20673100  0.35894174    -0.86200
H33         H  0.07327257  0.25612883  0.34999373    -0.04500
H34         H  0.08340464  0.12970471  0.40509272    -0.04700
C35         C  0.06220565  0.22924688  0.34337866     0.88900
C36         C  0.01532239  0.10810659  0.32803966     0.89500
C37         C  0.07593481  0.14527484  0.39313309     0.89500
H38         H  0.18289928  0.25925594  0.33115483    -0.04600
O39         O  0.13140938  0.21531348  0.28291893    -0.73700
Mg40       Mg  0.10060457  0.22236034  0.38831445     1.58000
H41         H  0.09137869  0.21980799  0.26685020    -0.04600
C42         C  0.45924818  0.16601127  0.32847188     0.94500
O43         O  0.00571357  0.17885484  0.40566959    -0.80900
C44         C  0.02764952  0.19309061  0.42436493     0.94600
O45         O  0.03174754  0.11387358  0.24679107    -0.80900
Mg46       Mg  0.16167514  0.19185807  0.30354315     1.58200
O47         O  0.47445001  0.17038391  0.35056353    -0.79200
O48         O  0.20044715  0.17738470  0.36469519    -0.80900
C49         C  0.17772887  0.07735492  0.19458162     0.04100
C50         C  0.17746234  0.10966064  0.19385262     0.04100
C51         C  0.19490584  0.13325834  0.17306618    -0.16400
C52         C  0.21177597  0.12513154  0.15309264     0.04100
C53         C  0.21179376  0.09306378  0.15383483     0.04100
C54         C  0.19503550  0.06965140  0.17455450    -0.16400
H55         H  0.19592077  0.04541419  0.17520551     0.06200
H56         H  0.19412928  0.15748667  0.17163421     0.06200
C57         C  0.42147376  0.06072208  0.18705083     0.04100
C58         C  0.45768012  0.08653617  0.18427151     0.04100
C59         C  0.46951316  0.10377665  0.16005065    -0.16400
C60         C  0.44692971  0.09476758  0.13825048     0.04100
C61         C  0.41185218  0.06635307  0.14018119     0.04100
C62         C  0.39938264  0.05073859  0.16492382    -0.16400
H63         H  0.37254957  0.02933000  0.16695391     0.06200
H64         H  0.49671150  0.12457787  0.15810040     0.06200
O65         O  0.15048984  0.45245980  0.33542183    -0.86500
C66         C  0.07317158  0.43280891  0.38861736     0.94900
Mg67       Mg  0.15342724  0.47754539  0.29831991     1.58100
O68         O  0.06472333  0.35801421  0.35655272    -0.86200
O69         O  0.14815428  0.40565903  0.35266725    -0.73500
C70         C  0.49248929  0.38010825  0.24645472     0.94600
O71         O  0.11059940  0.49606552  0.34587164    -0.73400
O72         O  0.01871525  0.41524141  0.24672890    -0.80900
Mg73       Mg  0.14448739  0.47856997  0.36916712     1.58000
C74         C  0.46511461  0.28423582  0.32739572     0.94500
O75         O  0.18089466  0.46753003  0.39516280    -0.79100
H76         H  0.08361994  0.32622481  0.34742400    -0.04500
C77         C  0.00591843  0.39848449  0.32434023     0.89500
O78         O  0.12792901  0.42418874  0.27694090    -0.73600
O79         O  0.09832374  0.43060280  0.37988427    -0.86400
O80         O  0.48066759  0.29787544  0.34896563    -0.79200
C81         C  0.03441838  0.33924799  0.42249400     0.94600
C82         C  0.17694190  0.44654353  0.41375321     0.94500
Mg83       Mg  0.02540653  0.35183209  0.29265093     1.58000
O84         O  0.49017847  0.35814725  0.26379724    -0.79100
O85         O  0.05845848  0.33500150  0.31741728    -0.73400
O86         O  0.06642625  0.36327866  0.41957643    -0.79200
O87         O  0.19281921  0.02891991  0.35663811    -0.80900
O88         O  0.10254344  0.47112870  0.24263935    -0.79200
C89         C  0.06924218  0.33899572  0.34100340     0.88900
O90         O  0.07106334  0.40095101  0.28195301    -0.86400
O91         O  0.01767421  0.37815979  0.32596082    -0.86500
O92         O  0.01934890  0.42462835  0.30887543    -0.73600
Mg93       Mg  0.10575925  0.38633033  0.38522052     1.58000
O94         O  0.01186265  0.32995175  0.40400587    -0.80900
H95         H  0.18213798  0.43440457  0.32358409    -0.04700
O96         O  0.10306168  0.47312066  0.30651318    -0.86200
H97         H  0.08384209  0.50433002  0.31673947    -0.04500
H98         H  0.09206243  0.37736073  0.26101746    -0.04700
C99         C  0.09871017  0.49181419  0.32254631     0.88900
C100        C  0.16133455  0.43132261  0.33667792     0.89500
C101        C  0.09654514  0.39986040  0.27263968     0.89500
H102        H  0.98427672  0.39444789  0.33688410    -0.04600
O103        O  0.04154875  0.40915812  0.38415791    -0.73700
Mg104      Mg  0.06250484  0.44526085  0.27716471     1.58000
H105        H  0.07819589  0.45586723  0.39972231    -0.04600
C106        C  0.20369443  0.04520444  0.33505722     0.94500
O107        O  0.15594712  0.50460223  0.25999999    -0.80900
C108        C  0.13424206  0.49656845  0.24112652     0.94600
O109        O  0.14934217  0.41643956  0.41574254    -0.80900
Mg110      Mg  0.01473497  0.35496470  0.36409536     1.58200
O111        O  0.18835196  0.03215886  0.31330561    -0.79200
O112        O  0.47612735  0.29945321  0.30537668    -0.80900
O113        O  0.30730928  0.35059657  0.33803116    -0.86500
C114        C  0.36715298  0.42864544  0.39091947     0.89500
Mg115      Mg  0.32648137  0.34555270  0.30065537     1.58100
O116        O  0.30001607  0.43735269  0.35995430    -0.86200
O117        O  0.26390817  0.35353552  0.35678495    -0.73500
C118        C  0.40017037  0.00350290  0.24882515     0.94600
O119        O  0.39163104  0.38835263  0.34800333    -0.73400
O120        O  0.40181248  0.47662642  0.25164630    -0.80900
Mg121      Mg  0.34037946  0.35674131  0.37107651     1.58000
C122        C  0.32840417  0.03788571  0.32659394     0.94500
O123        O  0.29251686  0.32150772  0.39530764    -0.79100
H124        H  0.24938785  0.41949396  0.35104207    -0.04500
C125        C  0.39925928  0.49279864  0.32781420     0.89500
O126        O  0.29978614  0.37291046  0.28040256    -0.73600
O127        O  0.33971737  0.40394004  0.38200674    -0.86400
O128        O  0.32676141  0.02267302  0.34831767    -0.79200
C129        C  0.31198830  0.46903428  0.42532373     0.94600
C130        C  0.28023456  0.32671881  0.41624108     0.94500
Mg131      Mg  0.33324189  0.47577916  0.29576204     1.58000
O132        O  0.38038279  0.00962979  0.26383437    -0.79100
O133        O  0.28335130  0.44420630  0.32097866    -0.73400
O134        O  0.30221156  0.43650645  0.42265995    -0.79200
O135        O  0.34096159  0.30716993  0.36059929    -0.80900
O136        O  0.36908662  0.39642403  0.24644710    -0.79200
C137        C  0.27650753  0.43330193  0.34452242     0.88900
O138        O  0.33504664  0.42910859  0.28627918    -0.86400
O139        O  0.36756180  0.48352716  0.32886771    -0.86500
O140        O  0.41076466  0.47729012  0.31315413    -0.73600
Mg141      Mg  0.28803818  0.39660379  0.38879541     1.58000
O142        O  0.32741937  0.49129965  0.40705184    -0.80900
H143        H  0.25702905  0.31901778  0.32762959    -0.04700
O144        O  0.37359464  0.39422121  0.30931355    -0.86200
H145        H  0.42443454  0.41141462  0.31708167    -0.04500
H146        H  0.29051202  0.41040601  0.26548165    -0.04700
C147        C  0.39759055  0.39814136  0.32421130     0.88900
C148        C  0.27545794  0.33999921  0.34024497     0.89500
C149        C  0.30798017  0.40466125  0.27673124     0.89500
H150        H  0.41752365  0.51386437  0.34045345    -0.04600
O151        O  0.37533004  0.46033937  0.38680591    -0.73700
Mg152      Mg  0.38662073  0.43467125  0.28127858     1.58000
H153        H  0.38500756  0.42317317  0.40191347    -0.04600
C154        C  0.34523183  0.29557284  0.33892148     0.94500
O155        O  0.34817148  0.34187779  0.26128927    -0.80900
C156        C  0.36093240  0.36458141  0.24301979     0.94600
O157        O  0.27841779  0.35451994  0.41986908    -0.80900
Mg158      Mg  0.34782521  0.48726405  0.36687439     1.58200
O159        O  0.34668412  0.31021696  0.31707599    -0.79200
O160        O  0.33460363  0.02783377  0.30477300    -0.80900
C161        C  0.42664271  0.32245777  0.19262402     0.04100
C162        C  0.39673844  0.32668574  0.19194258     0.04100
C163        C  0.37671019  0.31874416  0.16879706    -0.16400
C164        C  0.38433460  0.30411704  0.14694065     0.04100
C165        C  0.41213822  0.29637248  0.14859283     0.04100
C166        C  0.43308014  0.30596538  0.17140611    -0.16400
H167        H  0.45519019  0.30134113  0.17239321     0.06200
H168        H  0.35356322  0.32168853  0.16833608     0.06200
O169        O  0.21448492  0.02897163  0.00813768    -0.86500
C170        C  0.23372705  0.47445607  0.05967547     0.89500
Mg171      Mg  0.18791555  0.00960154  0.97067413     1.58100
O172        O  0.30935642  0.03425268  0.02791554    -0.86200
O173        O  0.26270159  0.07149412  0.02571216    -0.73500
C174        C  0.28135404  0.44489521  0.91830550     0.94600
O175        O  0.17126689  0.45295883  0.01478178    -0.73400
O176        O  0.25194276  0.44391721  0.91620814    -0.80900
Mg177      Mg  0.19183631  0.50390186  0.03896465     1.58000
C178        C  0.37510750  0.99929087  0.99482498     0.94500
O179        O  0.20123722  0.04073954  0.06984848    -0.79100
H180        H  0.34307712  0.08435690  0.01863711    -0.04500
C181        C  0.26297109  0.43898004  0.99494040     0.89500
O182        O  0.24109195  0.03517017  0.94890077    -0.73600
O183        O  0.23846852  0.50229259  0.05016937    -0.86400
O184        O  0.36435388  0.00303827  0.01716861    -0.79200
C185        C  0.33188356  0.02489122  0.09278385     0.94600
C186        C  0.22271806  0.05608665  0.08855680     0.94500
Mg187      Mg  0.30868685  0.99804610  0.96546575     1.58000
O188        O  0.30098575  0.45769011  0.93826740    -0.79100
O189        O  0.33104015  0.05000268  0.98837750    -0.73400
O190        O  0.30596918  0.03039093  0.09105679    -0.79200
O191        O  0.14271983  0.50599870  0.02819660    -0.80900
O192        O  0.20100748  0.47500162  0.91222204    -0.79200
C193        C  0.32865761  0.05728297  0.01217951     0.88900
O194        O  0.26136096  0.99968829  0.95614310    -0.86400
O195        O  0.28530478  0.47035262  0.99762482    -0.86500
O196        O  0.23802877  0.42896347  0.97838061    -0.73600
Mg197      Mg  0.28212961  0.04713531  0.05720314     1.58000
O198        O  0.34020632  0.01112248  0.07407118    -0.80900
H199        H  0.23435168  0.07922185  0.99758037    -0.04700
O200        O  0.19415379  0.46874062  0.97552825    -0.86200
H201        H  0.16032592  0.41863681  0.98465890    -0.04500
H202        H  0.28760985  0.04293987  0.93420111    -0.04700
C203        C  0.17446360  0.44571700  0.99111947     0.88900
C204        C  0.23672245  0.06052774  0.00997924     0.89500
C205        C  0.26448596  0.02648512  0.94583148     0.89500
H206        H  0.26435153  0.41965344  0.00726165    -0.04600
O207        O  0.25545224  0.46383229  0.05576611    -0.73700
Mg208      Mg  0.22186373  0.45590345  0.94673158     1.58000
H209        H  0.21009701  0.45834069  0.07091808    -0.04600
C210        C  0.12676852  0.50156228  0.00649967     0.94500
O211        O  0.16645549  0.49415774  0.92860990    -0.80900
C212        C  0.17550183  0.48104730  0.90989982     0.94600
O213        O  0.25338494  0.05968680  0.08889745    -0.80900
Mg214      Mg  0.30931735  0.48750877  0.03565312     1.58200
O215        O  0.13943749  0.49877388  0.98476176    -0.79200
O216        O  0.35798050  0.99562030  0.97389049    -0.80900
O217        O  0.28634104  0.31753698  0.99283642    -0.86500
C218        C  0.26714545  0.23701723  0.94304025     0.89500
Mg219      Mg  0.31054492  0.32162127  0.03032746     1.58100
O220        O  0.19172915  0.22566913  0.97660383    -0.86200
O221        O  0.23531789  0.30907566  0.97905543    -0.73500
C222        C  0.22416172  0.16446881  0.08440599     0.94600
O223        O  0.33333397  0.28020138  0.98417631    -0.73400
O224        O  0.25448642  0.19182573  0.08424060    -0.80900
Mg225      Mg  0.31247529  0.30983922  0.95929157     1.58000
C226        C  0.12173559  0.12641526  0.00754202     0.94500
O227        O  0.29822570  0.34023738  0.92852994    -0.79100
H228        H  0.15643452  0.24098437  0.98364011    -0.04500
C229        C  0.23635724  0.17212468  0.00671623     0.89500
O230        O  0.25656770  0.29399478  0.05095594    -0.73600
O231        O  0.26440591  0.26194684  0.95152277    -0.86400
O232        O  0.13446600  0.14098511  0.98551055    -0.79200
C233        C  0.17395278  0.19567671  0.91050884     0.94600
C234        C  0.27189037  0.33375748  0.91392880     0.94500
Mg235      Mg  0.18815953  0.18917574  0.03853832     1.58000
O236        O  0.20220045  0.15715153  0.06585109    -0.79100
O237        O  0.16664419  0.21862590  0.01478808    -0.73400
O238        O  0.19776088  0.22741043  0.91374744    -0.79200
O239        O  0.36310330  0.36043048  0.96898651    -0.80900
O240        O  0.30719777  0.27197964  0.08515937    -0.79200
C241        C  0.17075456  0.22863571  0.99108368     0.88900
O242        O  0.23623254  0.23741773  0.04731759    -0.86400
O243        O  0.21417607  0.18160359  0.00529743    -0.86500
O244        O  0.26312823  0.18778970  0.02153218    -0.73600
Mg245      Mg  0.21733731  0.26586189  0.94788841     1.58000
O246        O  0.16373968  0.17310878  0.92889691    -0.80900
H247        H  0.26629979  0.34730107  0.00492495    -0.04700
O248        O  0.30852632  0.27207458  0.02265164    -0.86200
H249        H  0.34335439  0.25649187  0.01455579    -0.04500
H250        H  0.21030222  0.25702359  0.06693918    -0.04700
C251        C  0.32911322  0.26919830  0.00767284     0.88900
C252        C  0.26328453  0.32596718  0.99250237     0.89500
C253        C  0.23343080  0.26232777  0.05574301     0.89500
H254        H  0.23338535  0.15059196  0.99456158    -0.04600
O255        O  0.24388319  0.20532886  0.94763987    -0.73700
Mg256      Mg  0.28236294  0.23212148  0.05218030     1.58000
H257        H  0.29029175  0.24231829  0.93187224    -0.04600
C258        C  0.37919222  0.37099576  0.99084477     0.94500
O259        O  0.33674252  0.32680578  0.07003214    -0.80900
C260        C  0.32994028  0.30428904  0.08805978     0.94600
O261        O  0.24159375  0.30758988  0.91771468    -0.80900
Mg262      Mg  0.18979239  0.17692810  0.96811756     1.58200
O263        O  0.36572701  0.35607467  0.01263442    -0.79200
O264        O  0.13799898  0.13836806  0.02911577    -0.80900
O265        O  0.03187891  0.21241531  0.99189145    -0.86500
C266        C  0.47052786  0.23022830  0.93963627     0.89500
Mg267      Mg  0.01469702  0.19142577  0.03048078     1.58100
O268        O  0.03974115  0.30556308  0.97231232    -0.86200
O269        O  0.07633283  0.25807709  0.97393541    -0.73500
C270        C  0.44120964  0.27762426  0.08187900     0.94600
O271        O  0.44576207  0.16618688  0.98500840    -0.73400
O272        O  0.43959027  0.24791132  0.08397684    -0.80900
Mg273      Mg  0.49471453  0.18301658  0.95923730     1.58000
C274        C  0.01075672  0.37791328  0.00208207     0.94500
O275        O  0.03837099  0.19233907  0.92967454    -0.79100
H276        H  0.09030649  0.33771154  0.98173195    -0.04500
C277        C  0.43877624  0.26161642  0.00480142     0.89500
O278        O  0.04203692  0.24620217  0.04915559    -0.73600
O279        O  0.49742244  0.23177206  0.94868770    -0.86400
O280        O  0.01534695  0.36533383  0.98090824    -0.79200
C281        C  0.03041971  0.32704433  0.90694908     0.94600
C282        C  0.05796138  0.21446061  0.91242039     0.94500
Mg283      Mg  0.00497087  0.31240264  0.03545719     1.58000
O284        O  0.45749722  0.29857345  0.06306501    -0.79100
O285        O  0.05583899  0.32995978  0.01120635    -0.73400
O286        O  0.03590704  0.30116768  0.90868759    -0.79200
O287        O  0.49384906  0.13254036  0.97006919    -0.80900
O288        O  0.47032702  0.19463333  0.08703923    -0.79200
C289        C  0.06305673  0.32501177  0.98791185     0.88900
O290        O  0.00446641  0.26521103  0.04734390    -0.86400
O291        O  0.47051406  0.28332191  0.00263258    -0.86500
O292        O  0.42765308  0.23640243  0.02116639    -0.73600
Mg293      Mg  0.05180106  0.27707937  0.94292225     1.58000
O294        O  0.01720354  0.33580634  0.92572130    -0.80900
H295        H  0.08178151  0.22791834  0.00162093    -0.04700
O296        O  0.46426356  0.18965891  0.02381184    -0.86200
H297        H  0.41321154  0.15761591  0.01594377    -0.04500
H298        H  0.05120345  0.29235462  0.06514808    -0.04700
C299        C  0.44005041  0.17038938  0.00882018     0.88900
C300        C  0.06393709  0.23214366  0.98951066     0.89500
C301        C  0.03294908  0.26874750  0.05467733     0.89500
H302        H  0.42005998  0.26385285  0.99226041    -0.04600
O303        O  0.46321808  0.25436896  0.94396238    -0.73700
Mg304      Mg  0.45249846  0.21786745  0.05306536     1.58000
H305        H  0.45246436  0.20750091  0.92823197    -0.04600
C306        C  0.49094374  0.11770100  0.99205533     0.94500
O307        O  0.49165164  0.16231571  0.06969353    -0.80900
C308        C  0.47861180  0.17061421  0.08886370     0.94600
O309        O  0.06463509  0.24626800  0.91256406    -0.80900
Mg310      Mg  0.49094513  0.30802736  0.96494030     1.58200
O311        O  0.49057969  0.13175024  0.01381111    -0.79200
O312        O  0.00456116  0.36185965  0.02382426    -0.80900
O313        O  0.13113920  0.01514578  0.67415974    -0.86500
C314        C  0.19626574  0.09639641  0.72248561     0.89500
Mg315      Mg  0.14763733  0.00721968  0.63640223     1.58100
O316        O  0.13283888  0.10851404  0.68844697    -0.86200
O317        O  0.08977462  0.02426373  0.68932193    -0.73500
C318        C  0.22914160  0.16284945  0.57823938     0.94600
O319        O  0.21529662  0.04912356  0.68094015    -0.73400
O320        O  0.23198572  0.13550574  0.58031170    -0.80900
Mg321      Mg  0.16608822  0.02280424  0.70694501     1.58000
C322        C  0.16478515  0.20717289  0.65489105     0.94500
O323        O  0.12439079  0.49657373  0.73741944    -0.79100
H324        H  0.08272712  0.09432664  0.68050243    -0.04500
C325        C  0.23100777  0.15653711  0.65663203     0.89500
O326        O  0.12394603  0.03686171  0.61536956    -0.73600
O327        O  0.16804620  0.07196978  0.71432896    -0.86400
O328        O  0.16327824  0.19301017  0.67703675    -0.79200
C329        C  0.14595695  0.14249252  0.75347146     0.94600
C330        C  0.10752409  0.50508272  0.75347851     0.94500
Mg331      Mg  0.16638374  0.14219372  0.62444975     1.58000
O332        O  0.21123463  0.16996975  0.59440786    -0.79100
O333        O  0.11604787  0.11512204  0.64952827    -0.73400
O334        O  0.13590887  0.11010111  0.75073590    -0.79200
O335        O  0.16438851  0.47133552  0.69725021    -0.80900
O336        O  0.19692499  0.05141869  0.57978253    -0.79200
C337        C  0.10949239  0.10576542  0.67338528     0.88900
O338        O  0.16390426  0.09271195  0.61611562    -0.86400
O339        O  0.19992207  0.14931296  0.65794483    -0.86500
O340        O  0.24044013  0.13891663  0.64236148    -0.73600
Mg341      Mg  0.11753560  0.06945973  0.71855899     1.58000
O342        O  0.16164746  0.16469900  0.73520369    -0.80900
H343        H  0.08052881  0.98460114  0.66428026    -0.04700
O344        O  0.19759672  0.05495369  0.64218265    -0.86200
H345        H  0.24773430  0.06870515  0.64942947    -0.04500
H346        H  0.11785179  0.07479944  0.59753873    -0.04700
C347        C  0.22119684  0.05769813  0.65693908     0.88900
C348        C  0.09975013  0.00666330  0.67568966     0.89500
C349        C  0.13489621  0.06857552  0.60889449     0.89500
H350        H  0.25053047  0.17778138  0.66851167    -0.04600
O351        O  0.20610801  0.12818865  0.71699318    -0.73700
Mg352      Mg  0.21410768  0.09405365  0.61215081     1.58000
H353        H  0.21339861  0.09050348  0.73404129    -0.04600
C354        C  0.16699192  0.45837583  0.67551571     0.94500
O355        O  0.16454783  0.99766953  0.59655003    -0.80900
C356        C  0.18235352  0.01801710  0.57789359     0.94600
O357        O  0.10191148  0.02971733  0.75089885    -0.80900
Mg358      Mg  0.18163131  0.15693757  0.69547148     1.58200
O359        O  0.16671738  0.47167296  0.65337509    -0.79200
O360        O  0.16903358  0.19485641  0.63336209    -0.80900
C361        C  0.06713502  0.15694833  0.85917589     0.04100
C362        C  0.10126364  0.16119558  0.85886052     0.04100
C363        C  0.11403482  0.15420899  0.83565122    -0.16400
C364        C  0.09227973  0.13998970  0.81357939     0.04100
C365        C  0.05640004  0.13125465  0.81506605     0.04100
C366        C  0.04456714  0.14052270  0.83778584    -0.16400
H367        H  0.01769458  0.13552465  0.83863004     0.06200
H368        H  0.14019568  0.15734078  0.83522369     0.06200
C369        C  0.06821007  0.40555166  0.85910411     0.04100
C370        C  0.09908506  0.43940080  0.85970494     0.04100
C371        C  0.11079399  0.45878709  0.83618663    -0.16400
C372        C  0.09245825  0.44550778  0.81252576     0.04100
C373        C  0.06190864  0.41218279  0.81197567     0.04100
C374        C  0.05024227  0.39247112  0.83510650    -0.16400
H375        H  0.02644811  0.36699574  0.83444764     0.06200
H376        H  0.13428644  0.48451693  0.83623862     0.06200
O377        O  0.48138263  0.11376324  0.67104608    -0.86500
C378        C  0.40516013  0.10026737  0.72346176     0.89500
Mg379      Mg  0.48670518  0.13738469  0.63318734     1.58100
O380        O  0.39226112  0.02337575  0.69186412    -0.86200
O381        O  0.47631368  0.06647400  0.68949408    -0.73500
C382        C  0.32727938  0.05616851  0.58040835     0.94600
O383        O  0.44670530  0.16292343  0.68005168    -0.73400
O384        O  0.35384482  0.08703300  0.58179637    -0.80900
Mg385      Mg  0.47739293  0.14263529  0.70386865     1.58000
C386        C  0.29230222  0.45742680  0.66015247     0.94500
O387        O  0.01485222  0.12812252  0.72822982    -0.79100
H388        H  0.40825558  0.98929433  0.68245723    -0.04500
C389        C  0.33874237  0.06937484  0.65917335     0.89500
O390        O  0.45714696  0.08355535  0.61311309    -0.73600
O391        O  0.42940464  0.09627993  0.71504351    -0.86400
O392        O  0.30765698  0.47051339  0.68187872    -0.79200
C393        C  0.35999979  0.00510492  0.75715170     0.94600
C394        C  0.00911745  0.10820575  0.74791607     0.94500
Mg395      Mg  0.35340777  0.01950258  0.62747467     1.58000
O396        O  0.32188056  0.03238354  0.59722239    -0.79100
O397        O  0.38396597  0.99978354  0.65270661    -0.73400
O398        O  0.39259068  0.02825733  0.75532605    -0.79200
O399        O  0.03110569  0.19175872  0.69175961    -0.80900
O400        O  0.43738203  0.13977859  0.57911889    -0.79200
C401        C  0.39518590  0.00344602  0.67619245     0.88900
O402        O  0.40113637  0.06644072  0.61662973    -0.86400
O403        O  0.34845391  0.04745325  0.66072321    -0.86500
O404        O  0.35386389  0.09555753  0.64390152    -0.73600
Mg405      Mg  0.43330055  0.04994192  0.72122921     1.58000
O406        O  0.33859871  0.99786337  0.73814665    -0.80900
H407        H  0.51175622  0.09356247  0.66075041    -0.04700
O408        O  0.43842497  0.13863003  0.64121915    -0.86200
H409        H  0.42301759  0.17336238  0.64989652    -0.04500
H410        H  0.41839395  0.03860678  0.59684878    -0.04700
C411        C  0.43584709  0.15912518  0.65650512     0.88900
C412        C  0.49092668  0.09170804  0.67325286     0.89500
C413        C  0.42505240  0.06203969  0.60808024     0.89500
H414        H  0.31752782  0.06672251  0.67161686    -0.04600
O415        O  0.37310879  0.07791453  0.71884269    -0.73700
Mg416      Mg  0.39714733  0.11378610  0.61252014     1.58000
H417        H  0.41139861  0.12375408  0.73446850    -0.04600
C418        C  0.04128420  0.20726020  0.66981230     0.94500
O419        O  0.49269561  0.16269279  0.59349581    -0.80900
C420        C  0.47053105  0.15938422  0.57604036     0.94600
O421        O  0.47737051  0.07913518  0.75191439    -0.80900
Mg422      Mg  0.34377364  0.02372920  0.69873869     1.58200
O423        O  0.02553052  0.19347677  0.64839544    -0.79200
O424        O  0.30366208  0.47319313  0.63834746    -0.80900
O425        O  0.35119105  0.30527507  0.66418769    -0.86500
C426        C  0.42739619  0.36423478  0.61041154     0.89500
Mg427      Mg  0.34564018  0.32678927  0.70028900     1.58100
O428        O  0.43846345  0.29964198  0.64206702    -0.86200
O429        O  0.35534482  0.26197699  0.64640838    -0.73500
C430        C  0.00366213  0.39770232  0.75180296     0.94600
O431        O  0.38592279  0.38881239  0.65132161    -0.73400
O432        O  0.47711562  0.40332450  0.74915052    -0.80900
Mg433      Mg  0.35529355  0.33571073  0.63012762     1.58000
C434        C  0.03990563  0.33150271  0.67291688     0.94500
O435        O  0.32037853  0.28505173  0.60865888    -0.79100
H436        H  0.42156084  0.24954317  0.65156584    -0.04500
C437        C  0.49335118  0.39973069  0.67244829     0.89500
O438        O  0.37358032  0.30211590  0.72261276    -0.73600
O439        O  0.40348994  0.33726659  0.62044905    -0.86400
O440        O  0.02516735  0.32968460  0.65090425    -0.79200
C441        C  0.46740657  0.31090113  0.57625763     0.94600
C442        C  0.32602147  0.27496623  0.58691918     0.94500
Mg443      Mg  0.47655840  0.33495319  0.70568384     1.58000
O444        O  0.00948982  0.37881923  0.73578108    -0.79100
O445        O  0.44563930  0.28429363  0.68132486    -0.73400
O446        O  0.43644670  0.30605359  0.57922373    -0.79200
O447        O  0.30490541  0.33384888  0.63914755    -0.80900
O448        O  0.39623311  0.37247988  0.75350658    -0.79200
C449        C  0.43488391  0.27672989  0.65779258     0.88900
O450        O  0.42944740  0.33652021  0.71481998    -0.86400
O451        O  0.48410919  0.36813562  0.67176479    -0.86500
O452        O  0.47791384  0.41142620  0.68700372    -0.73600
Mg453      Mg  0.39740185  0.28689166  0.61351647     1.58000
O454        O  0.49015938  0.32252511  0.59470556    -0.80900
H455        H  0.32183734  0.25551667  0.67632385    -0.04700
O456        O  0.39411892  0.37377048  0.69044468    -0.86200
H457        H  0.40981157  0.42371377  0.68104488    -0.04500
H458        H  0.41194888  0.29430228  0.73796160    -0.04700
C459        C  0.39689843  0.39653915  0.67480675     0.88900
C460        C  0.34182612  0.27364345  0.66295520     0.89500
C461        C  0.40555478  0.31049989  0.72576792     0.89500
H462        H  0.51439339  0.41772056  0.65969545    -0.04600
O463        O  0.45948756  0.37275230  0.61340539    -0.73700
Mg464      Mg  0.43503532  0.38812375  0.71885208     1.58000
H465        H  0.42091571  0.38111380  0.59915197    -0.04600
C466        C  0.29318178  0.33932992  0.66018770     0.94500
O467        O  0.34182858  0.35163184  0.73796177    -0.80900
C468        C  0.36451773  0.36559537  0.75619142     0.94600
O469        O  0.35484026  0.27547249  0.58249126    -0.80900
Mg470      Mg  0.48757836  0.34676389  0.63410797     1.58200
O471        O  0.30891851  0.34435556  0.68209714    -0.79200
O472        O  0.02823036  0.33585544  0.69462557    -0.80900
C473        C  0.30693669  0.39126560  0.85213597     0.04100
C474        C  0.29654557  0.41712790  0.85052302     0.04100
C475        C  0.30126550  0.43538197  0.82691211    -0.16400
C476        C  0.31477223  0.42764063  0.80455993     0.04100
C477        C  0.32214707  0.39973812  0.80541932     0.04100
C478        C  0.31924115  0.38272795  0.82946052    -0.16400
H479        H  0.32521500  0.36158032  0.83041577     0.06200
H480        H  0.29472221  0.45616423  0.82597147     0.06200
C481        C  0.99142097  0.23215024  0.47439821     0.04100
C482        C  0.99478753  0.26598548  0.47447278     0.04100
C483        C  0.99326456  0.28099059  0.49854510    -0.16400
C484        C  0.49002327  0.26243627  0.52376852     0.04100
C485        C  0.48503211  0.22790866  0.52336446     0.04100
C486        C  0.98521325  0.21381788  0.49816529    -0.16400
H487        H  0.98111476  0.18733859  0.49782464     0.06200
H488        H  0.99697204  0.30727927  0.49854157     0.06200
C489        C  0.22819201  0.24367322  0.48019330     0.04100
C490        C  0.25971314  0.27660291  0.48150077     0.04100
C491        C  0.28387977  0.28262468  0.50177520    -0.16400
C492        C  0.27650718  0.25751467  0.52152218     0.04100
C493        C  0.24308880  0.22647895  0.52179482     0.04100
C494        C  0.21993808  0.21963130  0.50074484    -0.16400
H495        H  0.19500632  0.19512050  0.50035328     0.06200
H496        H  0.30879997  0.30712561  0.50214098     0.06200
C497        C  0.25784019  0.47613070  0.48173670     0.04100
C498        C  0.22314936  0.47092128  0.48089447     0.04100
C499        C  0.21197840  0.48525632  0.50093275    -0.16400
C500        C  0.23122810  0.00136263  0.52193936     0.04100
C501        C  0.26474918  0.00405613  0.52335655     0.04100
C502        C  0.27937272  0.49347521  0.50352211    -0.16400
H503        H  0.30494911  0.49533093  0.50519268     0.06200
H504        H  0.18592200  0.48236321  0.49978653     0.06200
C505        C  0.00270711  0.46687203  0.99845087     0.04100
C506        C  0.03306591  0.50025556  0.00087547     0.04100
C507        C  0.03087380  0.03105962  0.00473613     0.04100
C508        C  0.99817377  0.02934369  0.00066384     0.04100
C509        C  0.46759566  0.49550313  0.99789011     0.04100
C510        C  0.47047661  0.46478356  0.99795957     0.04100
C511        C  0.36406818  0.16199220  0.33030379     0.04100
C512        C  0.36779548  0.19566665  0.33215661     0.04100
C513        C  0.33781266  0.19929669  0.33579376     0.04100
C514        C  0.30382391  0.16911489  0.33706990     0.04100
C515        C  0.29999357  0.13534246  0.33430785     0.04100
C516        C  0.33016323  0.13172048  0.33105149     0.04100
C517        C  0.19735326  0.33284815  0.66084442     0.04100
C518        C  0.19792040  0.36503708  0.66392617     0.04100
C519        C  0.16624253  0.36522256  0.66842792     0.04100
C520        C  0.13390469  0.33310685  0.66883257     0.04100
C521        C  0.13344112  0.30096420  0.66539444     0.04100
C522        C  0.16512740  0.30067604  0.66104515     0.04100
C523        C  0.07236923  0.33090478  0.67292471    -0.11400
C524        C  0.10073785  0.33268679  0.67180887    -0.13000
C525        C  0.25968639  0.33731428  0.65940921    -0.11400
C526        C  0.23056754  0.33354062  0.65916426    -0.13000
C527        C  0.35456616  0.37555652  0.78097233    -0.14600
C528        C  0.33158148  0.38743378  0.78117609    -0.29800
H529        H  0.36888450  0.37660556  0.79869059     0.14400
H530        H  0.32013060  0.38922035  0.76271037     0.15000
C531        C  0.30440175  0.26509013  0.54124438    -0.14600
C532        C  0.29808004  0.26339652  0.56707748    -0.29800
H533        H  0.33128197  0.27544704  0.53433965     0.14400
H534        H  0.27206255  0.25709508  0.57391470     0.15000
C535        C  0.47559375  0.30100868  0.55067330    -0.14600
C536        C  0.48911545  0.27943162  0.54897869    -0.29800
H537        H  0.46427344  0.30601519  0.53336977     0.14400
H538        H  0.49669353  0.27157917  0.56695780     0.15000
C539        C  0.25969900  0.42447797  0.66074825    -0.11400
C540        C  0.23140214  0.39787302  0.66226254    -0.13000
C541        C  0.07277564  0.24088852  0.66875241    -0.11400
C542        C  0.10028259  0.26815050  0.66709153    -0.13000
C543        C  0.32264894  0.45009067  0.78089958    -0.14600
C544        C  0.34738597  0.48443351  0.78147983    -0.29800
H545        H  0.31090136  0.43761597  0.76228628     0.14400
H546        H  0.36181146  0.99648535  0.79978478     0.15000
C547        C  0.28562414  0.01409518  0.54810869    -0.14600
C548        C  0.30320846  0.04715073  0.55757068    -0.29800
H549        H  0.28891911  0.99374339  0.55758488     0.14400
H550        H  0.30280893  0.06825827  0.54674137     0.15000
C551        C  0.47379956  0.20528174  0.54722502    -0.14600
C552        C  0.48346011  0.18109256  0.55223561    -0.29800
H553        H  0.45685116  0.20852263  0.56121113     0.14400
H554        H  0.50288250  0.17929614  0.54007389     0.15000
C555        C  0.04193434  0.39732696  0.78728358    -0.14600
C556        C  0.02586067  0.41269596  0.77519809    -0.29800
H557        H  0.03866863  0.37259554  0.78000870     0.14400
H558        H  0.02569759  0.43483109  0.78457550     0.15000
C559        C  0.03006012  0.11255311  0.79375155    -0.14600
C560        C  0.03698365  0.12103347  0.76822566    -0.29800
H561        H  0.00304769  0.09441249  0.79957580     0.14400
H562        H  0.56004354  0.14228241  0.76345221     0.15000
C563        C  0.16440024  0.26736057  0.65710367    -0.11400
C564        C  0.16353207  0.23944459  0.65484084    -0.13000
C565        C  0.16826321  0.42627987  0.67535923    -0.11400
C566        C  0.16719735  0.39840762  0.67276615    -0.13000
C567        C  0.09439254  0.48569163  0.77825702    -0.14600
C568        C  0.10679958  0.46559340  0.78802522    -0.29800
H569        H  0.07198941  0.98655435  0.78962505     0.14400
H570        H  0.12695216  0.46280198  0.77764939     0.15000
C571        C  0.10629498  0.13026739  0.79062788    -0.14600
C572        C  0.13618236  0.15330245  0.77807284    -0.29800
H573        H  0.08994716  0.10402079  0.78261687     0.14400
H574        H  0.15102663  0.18052758  0.78446846     0.15000
C575        C  0.18853854  0.00226825  0.55417223    -0.14600
C576        C  0.22019780  0.01835445  0.54227963    -0.29800
H577        H  0.16937281  0.97534711  0.54896946     0.14400
H578        H  0.24004932  0.04397779  0.54945687     0.15000
C579        C  0.24540488  0.18620157  0.55547560    -0.14600
C580        C  0.22928335  0.20229326  0.54452268    -0.29800
H581        H  0.26927719  0.18877809  0.54683936     0.14400
H582        H  0.20363333  0.19652612  0.55191660     0.15000
C583        C  0.49108391  0.08513234  0.99280228    -0.11400
C584        C  0.49443695  0.05956908  0.99464910    -0.13000
C585        C  0.00620397  0.43563317  0.99968115    -0.11400
C586        C  0.00999316  0.41023631  0.00094211    -0.13000
C587        C  0.04116336  0.34817095  0.88263449    -0.14600
C588        C  0.05437972  0.38331318  0.88311578    -0.29800
H589        H  0.04185256  0.33536797  0.86454386     0.14400
H590        H  0.05643506  0.39608321  0.90183144     0.15000
C591        C  0.05417786  0.16901879  0.88172382    -0.14600
C592        C  0.07225639  0.20225917  0.89107063    -0.29800
H593        H  0.02805667  0.15108898  0.88936252     0.14400
H594        H  0.09669623  0.22125640  0.88165758     0.15000
C595        C  0.06263438  0.06517687  0.00679832    -0.11400
C596        C  0.08879369  0.09384415  0.00768263    -0.13000
C597        C  0.43942626  0.43060458  0.99416905    -0.11400
C598        C  0.41291488  0.40253597  0.99161233    -0.13000
C599        C  0.27560580  0.35610971  0.89126703    -0.14600
C600        C  0.30494178  0.37190108  0.87664110    -0.29800
H601        H  0.25219862  0.35655270  0.88471920     0.14400
H602        H  0.32698297  0.36804699  0.88142538     0.15000
C603        C  0.12127967  0.16820932  0.88370473    -0.14600
C604        C  0.15650023  0.18605759  0.88490351    -0.29800
H605        H  0.10637842  0.15970580  0.90193181     0.14400
H606        H  0.17209180  0.19807938  0.86741242     0.15000
C607        C  0.40669013  0.99693565  0.99347383    -0.11400
C608        C  0.43262765  0.99385301  0.99335980    -0.13000
C609        C  0.06702090  0.50246536  0.00424080    -0.11400
C610        C  0.09399169  0.50150865  0.00608054    -0.13000
C611        C  0.15545866  0.47109511  0.88490048    -0.14600
C612        C  0.11986859  0.45451079  0.88439530    -0.29800
H613        H  0.16975024  0.47288741  0.86698263     0.14400
H614        H  0.10581096  0.44986680  0.90285222     0.15000
C615        C  0.28090654  0.42643417  0.87270388    -0.14600
C616        C  0.29470826  0.43245948  0.89689036    -0.29800
H617        H  0.25932186  0.43122236  0.86845511     0.14400
H618        H  0.31844491  0.43109493  0.90057125     0.15000
C619        C  0.42086726  0.27877193  0.12713575    -0.14600
C620        C  0.42534088  0.28980408  0.10206202    -0.29800
H621        H  0.42840444  0.25953654  0.13274281     0.14400
H622        H  0.42149238  0.31168767  0.09696308     0.15000
C623        C  0.36060818  0.29359051  0.12383312    -0.14600
C624        C  0.35071380  0.31509990  0.11252621    -0.29800
H625        H  0.35297902  0.26831640  0.11480882     0.14400
H626        H  0.36098014  0.34175118  0.11976004     0.15000
C627        C  0.32649344  0.09705832  0.32866186    -0.11400
C628        C  0.32541092  0.06905961  0.32718258    -0.13000
C629        C  0.34219080  0.23416390  0.33780636    -0.11400
C630        C  0.34560135  0.26313125  0.33875439    -0.13000
C631        C  0.27100754  0.46172897  0.46093476    -0.14600
C632        C  0.30292485  0.48108030  0.44969454    -0.29800
H633        H  0.25259576  0.43622884  0.45259752     0.14400
H634        H  0.32001676  0.50804083  0.45604981     0.15000
C635        C  0.26861087  0.29903966  0.43619050    -0.14600
C636        C  0.26884383  0.30501855  0.46200057    -0.29800
H637        H  0.26296998  0.27321621  0.42949701     0.14400
H638        H  0.27848917  0.33164349  0.46908764     0.15000
C639        C  0.36885509  0.35469707  0.21743211    -0.14600
C640        C  0.38386830  0.33456195  0.21649201    -0.29800
H641        H  0.36686663  0.36755669  0.19982174     0.14400
H642        H  0.38879850  0.32497127  0.23479670     0.15000
C643        C  0.23602708  0.07843645  0.33493854    -0.11400
C644        C  0.26491870  0.10442583  0.33472289    -0.13000
C645        C  0.40283491  0.22653706  0.33014792    -0.11400
C646        C  0.43211185  0.25176133  0.32843236    -0.13000
C647        C  0.02434777  0.32082104  0.44798827    -0.14600
C648        C  0.00074616  0.28625740  0.44966240    -0.29800
H649        H  0.04006168  0.33465428  0.46506717     0.14400
H650        H  0.98749791  0.27212857  0.43191116     0.15000
C651        C  0.19745731  0.45115916  0.45953632    -0.14600
C652        C  0.20493881  0.45924205  0.43399662    -0.29800
H653        H  0.17025255  0.43351788  0.46520556     0.14400
H654        H  0.23114138  0.47994512  0.42849641     0.15000
C655        C  0.46598464  0.36770009  0.22505615    -0.14600
C656        C  0.45145818  0.33465340  0.21536474    -0.29800
H657        H  0.46021062  0.38654151  0.21577434     0.14400
H658        H  0.46011039  0.31701893  0.22285717     0.15000
C659        C  0.46026891  0.11604750  0.11387814    -0.14600
C660        C  0.47106260  0.15071137  0.11372558    -0.29800
H661        H  0.45818443  0.10261685  0.09546817     0.14400
H662        H  0.47013696  0.16344049  0.13179597     0.15000
C663        C  0.35326371  0.03623451  0.11709056    -0.14600
C664        C  0.38877556  0.05205435  0.11639495    -0.29800
H665        H  0.33994859  0.03549792  0.13526052     0.14400
H666        H  0.40138396  0.05535904  0.09742492     0.15000
C667        C  0.40519688  0.04241489  0.21213010    -0.14600
C668        C  0.41869511  0.02621228  0.22628073    -0.29800
H669        H  0.37966300  0.03906857  0.21749593     0.14400
H670        H  0.44206517  0.02614279  0.21913770     0.15000
C671        C  0.22749439  0.14965255  0.13076814    -0.14600
C672        C  0.21240560  0.14060574  0.10698044    -0.29800
H673        H  0.24966080  0.17579224  0.13433981     0.14400
H674        H  0.18793459  0.11591960  0.10470470     0.15000
C675        C  0.22817552  0.08301070  0.13258798    -0.14600
C676        C  0.20967797  0.06789287  0.11074108    -0.29800
H677        H  0.25489849  0.08789752  0.13501286     0.14400
H678        H  0.18253026  0.06221029  0.10958175     0.15000
C679        C  0.16338559  0.05311787  0.21744961    -0.14600
C680        C  0.14613520  0.01774740  0.21525790    -0.29800
H681        H  0.16719918  0.06483473  0.23686318     0.14400
H682        H  0.13704720  0.50559712  0.19806355     0.15000
C683        C  0.24535255  0.17315896  0.34265865    -0.11400
C684        C  0.27251077  0.17236102  0.34067191    -0.13000
C685        C  0.42478973  0.16242920  0.32781301    -0.11400
C686        C  0.39586758  0.15950757  0.32830282    -0.13000
C687        C  0.99590489  0.21614521  0.44991136    -0.14600
C688        C  0.01645748  0.20136221  0.44937170    -0.29800
H689        H  0.98542262  0.21966623  0.43156798     0.14400
H690        H  0.02999097  0.20093387  0.46714186     0.15000
C691        C  0.19138159  0.24972605  0.44531590    -0.14600
C692        C  0.20477382  0.23145637  0.45689784    -0.29800
H693        H  0.19512458  0.27395970  0.45402994     0.14400
H694        H  0.19753838  0.20550320  0.44938825     0.15000
C695        C  0.47804345  0.10115609  0.23046798    -0.14600
C696        C  0.48440314  0.09620160  0.20553567    -0.29800
H697        H  0.95045775  0.10123336  0.23821567     0.14400
H698        H  0.51057726  0.10133911  0.20013816     0.15000
C699        C  0.15738657  0.11783075  0.21383196    -0.14600
C700        C  0.16695085  0.15075679  0.22182448    -0.29800
H701        H  0.13532001  0.09592621  0.22363731     0.14400
H702        H  0.19106998  0.17289729  0.21443303     0.15000
O703        O  0.02089118  0.63807932  0.32854343    -0.86500
C704        C  0.09888157  0.70382930  0.27747119     0.89500
Mg705      Mg  0.01164217  0.65597583  0.36555424     1.58100
O706        O  0.11453874  0.64185217  0.30953720    -0.86200
O707        O  0.03037183  0.59832481  0.31045713    -0.73500
C708        C  0.16714760  0.73586428  0.42132829     0.94600
O709        O  0.05102037  0.72104581  0.31875527    -0.73400
O710        O  0.14001963  0.73903818  0.41906106    -0.80900
Mg711      Mg  0.02486199  0.66960182  0.29497730     1.58000
C712        C  0.21343052  0.67602224  0.34359259     0.94500
O713        O  0.49220620  0.61101855  0.27485062    -0.79100
H714        H  0.10093762  0.59212193  0.31763062    -0.04500
C715        C  0.16051475  0.74025955  0.34293803     0.89500
O716        O  0.04220442  0.63386878  0.38763889    -0.73600
O717        O  0.07559246  0.67496423  0.28550046    -0.86400
O718        O  0.19974833  0.67605242  0.32153577    -0.79200
C719        C  0.15092886  0.65704270  0.24575499     0.94600
C720        C  0.49963044  0.60667405  0.25171566     0.94500
Mg721      Mg  0.14740801  0.67519620  0.37420469     1.58000
O722        O  0.17480258  0.71879724  0.40483027    -0.79100
O723        O  0.12093717  0.62546733  0.34864369    -0.73400
O724        O  0.11744148  0.64294115  0.24711371    -0.79200
O725        O  0.46734924  0.65470279  0.30618024    -0.80900
O726        O  0.05762127  0.70083136  0.42096256    -0.79200
C727        C  0.11200051  0.61880494  0.32471141     0.88900
O728        O  0.09783674  0.67229986  0.38243002    -0.86400
O729        O  0.15352498  0.70931765  0.34146654    -0.86500
O730        O  0.14262599  0.74940782  0.35718486    -0.73600
Mg731      Mg  0.07480216  0.62580144  0.27958588     1.58000
O732        O  0.17116221  0.67509382  0.26441283    -0.80900
H733        H  0.99326167  0.58731922  0.33852089    -0.04700
O734        O  0.05851050  0.70553380  0.35793785    -0.86200
H735        H  0.07109707  0.75494886  0.34949272    -0.04500
H736        H  0.08182117  0.62876869  0.40381811    -0.04700
C737        C  0.06036366  0.72821035  0.34261621     0.88900
C738        C  0.01380276  0.60719727  0.32640886     0.89500
C739        C  0.07453324  0.64455017  0.39194094     0.89500
H740        H  0.18162086  0.75985331  0.33103379    -0.04600
O741        O  0.13112424  0.71533750  0.28286600    -0.73700
Mg742      Mg  0.09849950  0.72160387  0.38757496     1.58000
H743        H  0.09155207  0.72006871  0.26620348    -0.04600
C744        C  0.45436740  0.65805151  0.32748638     0.94500
O745        O  0.00356290  0.67737435  0.40409165    -0.80900
C746        C  0.02518680  0.69173016  0.42294885     0.94600
O747        O  0.03351176  0.61121145  0.24716658    -0.80900
Mg748      Mg  0.16181569  0.69255171  0.30383638     1.58200
O749        O  0.46910198  0.66113259  0.34957707    -0.79200
O750        O  0.20043756  0.67857550  0.36532490    -0.80900
C751        C  0.17763466  0.57716042  0.19534862     0.04100
C752        C  0.17600662  0.60871169  0.19438820     0.04100
C753        C  0.19097018  0.63134213  0.17277509    -0.16400
C754        C  0.20755294  0.62347915  0.15248414     0.04100
C755        C  0.20914168  0.59218692  0.15333520     0.04100
C756        C  0.19445006  0.56952171  0.17486651    -0.16400
H757        H  0.19634895  0.54583904  0.17575359     0.06200
H758        H  0.18914784  0.65501202  0.17129063     0.06200
C759        C  0.41145870  0.56316580  0.19096852     0.04100
C760        C  0.44727237  0.58935521  0.18701738     0.04100
C761        C  0.45604950  0.61081087  0.16466826    -0.16400
C762        C  0.43046537  0.60610436  0.14575879     0.04100
C763        C  0.39582639  0.57705698  0.14832958     0.04100
C764        C  0.38664733  0.55682420  0.17126397    -0.16400
H765        H  0.35966346  0.53577620  0.17382123     0.06200
H766        H  0.48282179  0.63238424  0.16278798     0.06200
O767        O  0.14985367  0.95177486  0.33356880    -0.86500
C768        C  0.07136942  0.93263921  0.38584352     0.94900
Mg769      Mg  0.15336480  0.97644384  0.29623495     1.58100
O770        O  0.06273481  0.85738498  0.35436452    -0.86200
O771        O  0.14637337  0.90461394  0.35111211    -0.73500
C772        C  0.49084124  0.88397993  0.24743304     0.94600
O773        O  0.11051758  0.99644884  0.34314233    -0.73400
O774        O  0.01914251  0.91546647  0.24459880    -0.80900
Mg775      Mg  0.14339619  0.97833231  0.36697578     1.58000
C776        C  0.46399391  0.78476231  0.32746354     0.94500
O777        O  0.17887190  0.96704019  0.39375576    -0.79100
H778        H  0.08110343  0.82500544  0.34572125    -0.04500
C779        C  0.00504173  0.89849270  0.32172376     0.89500
O780        O  0.12697138  0.92277736  0.27511351    -0.73600
O781        O  0.09661088  0.93035577  0.37738795    -0.86400
O782        O  0.47982999  0.79864612  0.34897375    -0.79200
C783        C  0.03192811  0.83883818  0.42035122     0.94600
C784        C  0.17442825  0.94601277  0.41243530     0.94500
Mg785      Mg  0.02370176  0.85079881  0.29023057     1.58000
O786        O  0.48809512  0.86057706  0.26366858    -0.79100
O787        O  0.05609798  0.83359848  0.31549334    -0.73400
O788        O  0.06386296  0.86308936  0.41752460    -0.79200
O789        O  0.19327050  0.52913111  0.35860936    -0.80900
O790        O  0.10266548  0.97021951  0.24043306    -0.79200
C791        C  0.06698966  0.83794782  0.33906915     0.88900
O792        O  0.07007621  0.89987945  0.27981375    -0.86400
O793        O  0.01592326  0.87744646  0.32335272    -0.86500
O794        O  0.01934995  0.92485561  0.30649237    -0.73600
Mg795      Mg  0.10355125  0.88578955  0.38330300     1.58000
O796        O  0.00953177  0.82937316  0.40172971    -0.80900
H797        H  0.18109794  0.93298940  0.32230676    -0.04700
O798        O  0.10324410  0.97273830  0.30416416    -0.86200
H799        H  0.08483222  0.00495494  0.31333120    -0.04500
H800        H  0.09101531  0.87592918  0.25925534    -0.04700
C801        C  0.09913316  0.99206979  0.31968659     0.88900
C802        C  0.16020043  0.93026850  0.33513946     0.89500
C803        C  0.09554643  0.89854363  0.27074823     0.89500
H804        H  0.98346548  0.89495203  0.33414135    -0.04600
O805        O  0.03976267  0.90885443  0.38143628    -0.73700
Mg806      Mg  0.06263109  0.94490767  0.27493293     1.58000
H807        H  0.07629675  0.95582541  0.39672690    -0.04600
C808        C  0.20301874  0.54581336  0.33713750     0.94500
O809        O  0.15611528  0.00332617  0.25785490    -0.80900
C810        C  0.13439143  0.99558459  0.23903356     0.94600
O811        O  0.14675855  0.91591667  0.41416439    -0.80900
Mg812      Mg  0.01275217  0.85442025  0.36163641     1.58200
O813        O  0.18689326  0.53311551  0.31560438    -0.79200
O814        O  0.47429974  0.80020913  0.30540262    -0.80900
O815        O  0.30632914  0.85035480  0.33707379    -0.86500
C816        C  0.36599556  0.92864541  0.39017305     0.89500
Mg817      Mg  0.32518303  0.84551449  0.29968543     1.58100
O818        O  0.30002715  0.93818676  0.35802141    -0.86200
O819        O  0.26299579  0.85408365  0.35509179    -0.73500
C820        C  0.39662399  0.50235185  0.24935127     0.94600
O821        O  0.39083388  0.88795354  0.34725248    -0.73400
O822        O  0.40418432  0.97718477  0.25195389    -0.80900
Mg823      Mg  0.33957305  0.85676490  0.37015731     1.58000
C824        C  0.32646838  0.53639304  0.32817120     0.94500
O825        O  0.29200807  0.82187750  0.39462457    -0.79100
H826        H  0.24980761  0.92177128  0.34861354    -0.04500
C827        C  0.40003396  0.99285301  0.32768146     0.89500
O828        O  0.29954471  0.87430953  0.27992667    -0.73600
O829        O  0.33873463  0.90405501  0.38092248    -0.86400
O830        O  0.32628270  0.52204199  0.35000779    -0.79200
C831        C  0.30975400  0.96912134  0.42368386     0.94600
C832        C  0.27853642  0.82695684  0.41496230     0.94500
Mg833      Mg  0.33532757  0.97786537  0.29432341     1.58000
O834        O  0.37721710  0.50773562  0.26528468    -0.79100
O835        O  0.28468183  0.94684949  0.31908766    -0.73400
O836        O  0.30015870  0.93665237  0.42095694    -0.79200
O837        O  0.34058215  0.80722698  0.35963624    -0.80900
O838        O  0.36835276  0.89711576  0.24651245    -0.79200
C839        C  0.27706445  0.93514937  0.34241596     0.88900
O840        O  0.33582542  0.93052188  0.28535708    -0.86400
O841        O  0.36857143  0.98460533  0.32804167    -0.86500
O842        O  0.41124822  0.97671203  0.31343662    -0.73600
Mg843      Mg  0.28692970  0.89707681  0.38697505     1.58000
O844        O  0.32584663  0.99155809  0.40561689    -0.80900
H845        H  0.25612741  0.81901535  0.32642018    -0.04700
O846        O  0.37246814  0.89374706  0.30875200    -0.86200
H847        H  0.42324060  0.91007817  0.31600834    -0.04500
H848        H  0.29090586  0.91227035  0.26511546    -0.04700
C849        C  0.39652518  0.89729271  0.32339216     0.88900
C850        C  0.27452094  0.84004892  0.33901299     0.89500
C851        C  0.30831827  0.90622311  0.27614847     0.89500
H852        H  0.41826465  0.01347899  0.34063460    -0.04600
O853        O  0.37433544  0.96041475  0.38617399    -0.73700
Mg854      Mg  0.38680453  0.93470047  0.28122265     1.58000
H855        H  0.38354885  0.92300773  0.40141627    -0.04600
C856        C  0.34417832  0.79522570  0.33788639     0.94500
O857        O  0.34637884  0.84184504  0.26006520    -0.80900
C858        C  0.35922291  0.86521527  0.24227001     0.94600
O859        O  0.27626536  0.85460981  0.41807160    -0.80900
Mg860      Mg  0.34765772  0.98783038  0.36575059     1.58200
O861        O  0.34445691  0.80922437  0.31596105    -0.79200
O862        O  0.33147800  0.52548466  0.30628184    -0.80900
C863        C  0.43106179  0.83641061  0.18786677     0.04100
C864        C  0.39843450  0.83566189  0.18834344     0.04100
C865        C  0.38015814  0.83173725  0.16473339    -0.16400
C866        C  0.39274498  0.82676154  0.14061258     0.04100
C867        C  0.42400027  0.82469098  0.14049041     0.04100
C868        C  0.44304715  0.83009082  0.16397766    -0.16400
H869        H  0.46756067  0.82958209  0.16360647     0.06200
H870        H  0.35593329  0.83264178  0.16528706     0.06200
O871        O  0.21952255  0.53633458  0.00561720    -0.86500
C872        C  0.23424007  0.96972672  0.06190405     0.89500
Mg873      Mg  0.19424214  0.51698298  0.96780271     1.58100
O874        O  0.31190550  0.53772412  0.02818019    -0.86200
O875        O  0.26753399  0.57775034  0.02409978    -0.73500
C876        C  0.27612160  0.94030308  0.91979054     0.94600
O877        O  0.16761813  0.94501971  0.01742697    -0.73400
O878        O  0.24699079  0.93971861  0.91712697    -0.80900
Mg879      Mg  0.18846703  0.99574622  0.04168774     1.58000
C880        C  0.37703311  0.50091237  0.99728077     0.94500
O881        O  0.20551524  0.55038089  0.06633198    -0.79100
H882        H  0.34724373  0.58777056  0.02017000    -0.04500
C883        C  0.25981981  0.93476223  0.99727451     0.89500
O884        O  0.24831608  0.54223267  0.94712543    -0.73600
O885        O  0.23658143  0.99596417  0.05119401    -0.86400
O886        O  0.36426478  0.50262074  0.01934554    -0.79200
C887        C  0.33050472  0.52486408  0.09333608     0.94600
C888        C  0.22623094  0.56455196  0.08570995     0.94500
Mg889      Mg  0.31431059  0.50378773  0.96509156     1.58000
O890        O  0.29299798  0.94931110  0.94120422    -0.79100
O891        O  0.33573876  0.55440036  0.98935693    -0.73400
O892        O  0.31020171  0.53767116  0.09023505    -0.79200
O893        O  0.13882479  0.99742957  0.03250937    -0.80900
O894        O  0.19305126  0.96730776  0.91476218    -0.79200
C895        C  0.33252334  0.56096897  0.01314417     0.88900
O896        O  0.26783892  0.50601785  0.95420890    -0.86400
O897        O  0.28262845  0.96615320  0.99927392    -0.86500
O898        O  0.23463371  0.92432280  0.98076546    -0.73600
Mg899      Mg  0.28518209  0.55265179  0.05634503     1.58000
O900        O  0.33464713  0.50670310  0.07566245    -0.80900
H901        H  0.24117994  0.58678721  0.99507866    -0.04700
O902        O  0.18812189  0.96119738  0.97767240    -0.86200
H903        H  0.15531269  0.91092818  0.98698777    -0.04500
H904        H  0.29510996  0.54990018  0.93309540    -0.04700
C905        C  0.16947876  0.93799224  0.99349014     0.88900
C906        C  0.24236336  0.56762108  0.00771259     0.89500
C907        C  0.27155369  0.53325912  0.94424407     0.89500
H908        H  0.26121594  0.91571497  0.00991513    -0.04600
O909        O  0.25788285  0.96142108  0.05869385    -0.73700
Mg910      Mg  0.21618641  0.94942718  0.94869826     1.58000
H911        H  0.21159447  0.95343577  0.07402770    -0.04600
C912        C  0.12247425  0.99445968  0.01124140     0.94500
O913        O  0.15919233  0.98716042  0.93153670    -0.80900
C914        C  0.16802805  0.97415356  0.91258463     0.94600
O915        O  0.25601110  0.56612874  0.08719988    -0.80900
Mg916      Mg  0.31038145  0.98645023  0.03600753     1.58200
O917        O  0.13398673  0.99176449  0.98895305    -0.79200
O918        O  0.36233647  0.50006282  0.97563843    -0.80900
O919        O  0.28285359  0.81906098  0.99268725    -0.86500
C920        C  0.26621814  0.73773318  0.94379034     0.89500
Mg921      Mg  0.30679878  0.82311183  0.03049468     1.58100
O922        O  0.18874779  0.72504106  0.97422964    -0.86200
O923        O  0.23129697  0.80799217  0.97775543    -0.73500
C924        C  0.21463282  0.66850433  0.08684954     0.94600
O925        O  0.32886604  0.78025970  0.98623177    -0.73400
O926        O  0.24505682  0.69569913  0.08682673    -0.80900
Mg927      Mg  0.30939372  0.81011133  0.95994531     1.58000
C928        C  0.11870150  0.62709872  0.00491011     0.94500
O929        O  0.29590019  0.84023170  0.92858616    -0.79100
H930        H  0.15151257  0.73853611  0.97751796    -0.04500
C931        C  0.23257081  0.67331340  0.00965129     0.89500
O932        O  0.25164070  0.79694710  0.05032274    -0.73600
O933        O  0.26213407  0.76214831  0.95156056    -0.86400
O934        O  0.13327891  0.64082596  0.98313007    -0.79200
C935        C  0.17423766  0.69462253  0.90864615     0.94600
C936        C  0.27002467  0.83352569  0.91340821     0.94500
Mg937      Mg  0.18149643  0.69135149  0.03707882     1.58000
O938        O  0.19307275  0.66132201  0.06803595    -0.79100
O939        O  0.16049765  0.71867273  0.01068575    -0.73400
O940        O  0.19668186  0.72682364  0.91204285    -0.79200
O941        O  0.35965578  0.86062116  0.96952077    -0.80900
O942        O  0.29132660  0.77681400  0.08678210    -0.79200
C943        C  0.16600487  0.72745806  0.98678728     0.88900
O944        O  0.22884952  0.74007004  0.04582232    -0.86400
O945        O  0.21066494  0.68285984  0.00610541    -0.86500
O946        O  0.25823279  0.68946572  0.02543102    -0.73600
Mg947      Mg  0.21498379  0.76524983  0.94623894     1.58000
O948        O  0.16488406  0.67199971  0.92696671    -0.80900
H949        H  0.25979389  0.84626100  0.00434010    -0.04700
O950        O  0.30227741  0.77298015  0.02387074    -0.86200
H951        H  0.33645928  0.75604271  0.01751701    -0.04500
H952        H  0.20323096  0.76107756  0.06414939    -0.04700
C953        C  0.32311925  0.76923410  0.00977403     0.88900
C954        C  0.25851425  0.82569696  0.99186303     0.89500
C955        C  0.22673122  0.76554933  0.05387408     0.89500
H956        H  0.23035470  0.65127063  0.99856455    -0.04600
O957        O  0.24375551  0.70588238  0.94858355    -0.73700
Mg958      Mg  0.27416093  0.73509731  0.05452630     1.58000
H959        H  0.29004976  0.74370680  0.93330834    -0.04600
C960        C  0.37600346  0.87084771  0.99126365     0.94500
O961        O  0.33370938  0.82639092  0.06982215    -0.80900
C962        C  0.32047793  0.80519883  0.08897334     0.94600
O963        O  0.23981450  0.80705113  0.91653746    -0.80900
Mg964      Mg  0.18886982  0.67700843  0.96744980     1.58200
O965        O  0.36262319  0.85577579  0.01303525    -0.79200
O966        O  0.13269258  0.63998031  0.02701528    -0.80900
O967        O  0.03055072  0.71159432  0.98988149    -0.86500
C968        C  0.46961545  0.72898685  0.94103514     0.89500
Mg969      Mg  0.01514796  0.68976638  0.02833261     1.58100
O970        O  0.03390877  0.80371751  0.97276800    -0.86200
O971        O  0.07329194  0.75878389  0.97199610    -0.73500
C972        C  0.43807567  0.77521128  0.08380386     0.94600
O973        O  0.44640163  0.66547172  0.98580423    -0.73400
O974        O  0.43349089  0.74417347  0.08313044    -0.80900
Mg975      Mg  0.49538348  0.68280527  0.96018761     1.58000
C976        C  0.00514321  0.87493129  0.00592987     0.94500
O977        O  0.03610887  0.69350677  0.92742212    -0.79100
H978        H  0.08461006  0.83719581  0.98087414    -0.04500
C979        C  0.43712311  0.76144904  0.00571577     0.89500
O980        O  0.04170402  0.74418167  0.04762967    -0.73600
O981        O  0.49706113  0.73092069  0.94930894    -0.86400
O982        O  0.00741772  0.86198609  0.98409753    -0.79200
C983        C  0.02097344  0.82464170  0.90808119     0.94600
C984        C  0.05486264  0.71620762  0.91021165     0.94500
Mg985      Mg  0.00200606  0.80905781  0.03774144     1.58000
O986        O  0.45753221  0.79870653  0.06718070    -0.79100
O987        O  0.05136202  0.82806391  0.01150437    -0.73400
O988        O  0.02699315  0.79908964  0.90924186    -0.79200
O989        O  0.49512151  0.63285370  0.97197870    -0.80900
O990        O  0.46410184  0.69009990  0.08664595    -0.79200
C991        C  0.05769222  0.82362332  0.98784789     0.88900
O992        O  0.00296233  0.76182562  0.04762805    -0.86400
O993        O  0.46889018  0.78303503  0.00416040    -0.86500
O994        O  0.42559339  0.73540103  0.02121850    -0.73600
Mg995      Mg  0.04625478  0.77661681  0.94224759     1.58000
O996        O  0.00844303  0.83324674  0.92745602    -0.80900
H997        H  0.08115144  0.72894606  0.99854987    -0.04700
O998        O  0.46459812  0.69031893  0.02421009    -0.86200
H999        H  0.41379537  0.65674251  0.01669738    -0.04500
H1000       H  0.05018514  0.78955996  0.06463189    -0.04700
C1001       C  0.44060245  0.67003767  0.00948194     0.88900
C1002       C  0.06232594  0.73247327  0.98711347     0.89500
C1003       C  0.03199974  0.76598669  0.05409643     0.89500
H1004       H  0.41880850  0.76433250  0.99315092    -0.04600
O1005       O  0.46205426  0.75289341  0.94577285    -0.73700
Mg1006     Mg  0.44963080  0.71628005  0.05295350     1.58000
H1007       H  0.45122776  0.70603597  0.92998102    -0.04600
C1008       C  0.49281962  0.61899387  0.99432457     0.94500
O1009       O  0.49604058  0.66725596  0.07105741    -0.80900
C1010       C  0.47816160  0.67079064  0.08919049     0.94600
O1011       O  0.05999081  0.74750048  0.91071429    -0.80900
Mg1012     Mg  0.48953874  0.80699297  0.96621834     1.58200
O1013       O  0.49353517  0.63421961  0.01576448    -0.79200
O1014       O  0.00051270  0.85883985  0.02760239    -0.80900
O1015       O  0.13193727  0.51569682  0.67291378    -0.86500
C1016       C  0.19659740  0.59752377  0.72107817     0.89500
Mg1017     Mg  0.14878318  0.50798602  0.63531702     1.58100
O1018       O  0.13281024  0.60894398  0.68679743    -0.86200
O1019       O  0.09037345  0.52459526  0.68792077    -0.73500
C1020       C  0.22942200  0.66367108  0.57701504     0.94600
O1021       O  0.21624375  0.54996005  0.67988252    -0.73400
O1022       O  0.23268574  0.63658733  0.57929532    -0.80900
Mg1023     Mg  0.16688968  0.52372601  0.70571197     1.58000
C1024       C  0.16367625  0.70719552  0.65315722     0.94500
O1025       O  0.12354246  0.99539886  0.73880460    -0.79100
H1026       H  0.08261478  0.59431461  0.67876471    -0.04500
C1027       C  0.23116691  0.65764442  0.65543527     0.89500
O1028       O  0.12496394  0.53741232  0.61412778    -0.73600
O1029       O  0.16850067  0.57294415  0.71289804    -0.86400
O1030       O  0.16264412  0.69326724  0.67531138    -0.79200
C1031       C  0.14523278  0.64343743  0.75171983     0.94600
C1032       C  0.10618653  0.00353830  0.75467842     0.94500
Mg1033     Mg  0.16641285  0.64266784  0.62296979     1.58000
O1034       O  0.21127398  0.67062419  0.59305694    -0.79100
O1035       O  0.11597849  0.61528572  0.64783940    -0.73400
O1036       O  0.13487365  0.61095972  0.74907567    -0.79200
O1037       O  0.16333345  0.97057887  0.69828658    -0.80900
O1038       O  0.19800936  0.55271050  0.57904112    -0.79200
C1039       C  0.10941572  0.60595280  0.67169148     0.88900
O1040       O  0.16452468  0.59340460  0.61495108    -0.86400
O1041       O  0.20000608  0.65022717  0.65653442    -0.86500
O1042       O  0.24089043  0.64006131  0.64140840    -0.73600
Mg1043     Mg  0.11771376  0.57010172  0.71700749     1.58000
O1044       O  0.16132537  0.66552267  0.73347731    -0.80900
H1045       H  0.08137514  0.48486128  0.66302823    -0.04700
O1046       O  0.19848840  0.55598444  0.64124581    -0.86200
H1047       H  0.24861092  0.56952553  0.64832971    -0.04500
H1048       H  0.11855197  0.57508998  0.59618646    -0.04700
C1049       C  0.22211436  0.55860707  0.65590248     0.88900
C1050       C  0.10050481  0.50704557  0.67438772     0.89500
C1051       C  0.13567596  0.56908107  0.60764201     0.89500
H1052       H  0.25049065  0.67899413  0.66734683    -0.04600
O1053       O  0.20618125  0.62925586  0.71557305    -0.73700
Mg1054     Mg  0.21492391  0.59518479  0.61124377     1.58000
H1055       H  0.21383391  0.59182881  0.73267864    -0.04600
C1056       C  0.16571395  0.95759262  0.67652203     0.94500
O1057       O  0.16617300  0.49881350  0.59572258    -0.80900
C1058       C  0.18389180  0.51937012  0.57715937     0.94600
O1059       O  0.10288672  0.53100292  0.74958210    -0.80900
Mg1060     Mg  0.18141497  0.65765593  0.69389809     1.58200
O1061       O  0.16541360  0.97087462  0.65438862    -0.79200
O1062       O  0.16821613  0.69506627  0.63163239    -0.80900
C1063       C  0.06754435  0.66024947  0.85742444     0.04100
C1064       C  0.10143473  0.66375188  0.85701948     0.04100
C1065       C  0.11365530  0.65631763  0.83363905    -0.16400
C1066       C  0.09172924  0.64266975  0.81155671     0.04100
C1067       C  0.05621296  0.63494134  0.81319654     0.04100
C1068       C  0.04486550  0.64445621  0.83600723    -0.16400
H1069       H  0.01815956  0.63993769  0.83697871     0.06200
H1070       H  0.13943923  0.65861162  0.83298652     0.06200
C1071       C  0.06074978  0.90307534  0.86017064     0.04100
C1072       C  0.09265199  0.93609035  0.86116273     0.04100
C1073       C  0.10588733  0.95538508  0.83770114    -0.16400
C1074       C  0.08824789  0.94278015  0.81366672     0.04100
C1075       C  0.05697395  0.91003521  0.81267311     0.04100
C1076       C  0.04360681  0.89055318  0.83579348    -0.16400
H1077       H  0.01920996  0.86563613  0.83476969     0.06200
H1078       H  0.13002388  0.98058258  0.83810299     0.06200
O1079       O  0.48177934  0.61500544  0.67172625    -0.86500
C1080       C  0.40587527  0.60109362  0.72455782     0.89500
Mg1081     Mg  0.48773344  0.63931226  0.63412817     1.58100
O1082       O  0.39293843  0.52485996  0.69199531    -0.86200
O1083       O  0.47686740  0.56758260  0.68977688    -0.73500
C1084       C  0.32899760  0.56011084  0.58109690     0.94600
O1085       O  0.44744573  0.66425821  0.68137481    -0.73400
O1086       O  0.35561334  0.59094908  0.58245184    -0.80900
Mg1087     Mg  0.47789587  0.64343957  0.70489282     1.58000
C1088       C  0.29094700  0.95522046  0.66084825     0.94500
O1089       O  0.01174114  0.63340675  0.72765696    -0.79100
H1090       H  0.40927157  0.49126689  0.68190035    -0.04500
C1091       C  0.34035702  0.57233436  0.65995070     0.89500
O1092       O  0.45828999  0.58609195  0.61336139    -0.73600
O1093       O  0.42998056  0.59709945  0.71584758    -0.86400
O1094       O  0.30683358  0.96843226  0.68239253    -0.79200
C1095       C  0.36022414  0.50523861  0.75708397     0.94600
C1096       C  0.00750525  0.61311978  0.74683199     0.94500
Mg1097     Mg  0.35485475  0.52275659  0.62761872     1.58000
O1098       O  0.32348861  0.53631374  0.59791845    -0.79100
O1099       O  0.38533249  0.50260542  0.65239500    -0.73400
O1100       O  0.39285335  0.52839584  0.75546893    -0.79200
O1101       O  0.02578853  0.69419846  0.68920509    -0.80900
O1102       O  0.43949006  0.64343321  0.57998968    -0.79200
C1103       C  0.39617228  0.50550849  0.67593457     0.88900
O1104       O  0.40253522  0.56974656  0.61708326    -0.86400
O1105       O  0.34972854  0.55011312  0.66124104    -0.86500
O1106       O  0.35557030  0.59862877  0.64476107    -0.73600
Mg1107     Mg  0.43381656  0.55066488  0.72150947     1.58000
O1108       O  0.33893939  0.49846736  0.73805232    -0.80900
H1109       H  0.51223905  0.59504084  0.66108733    -0.04700
O1110       O  0.43984841  0.64128716  0.64206845    -0.86200
H1111       H  0.42443528  0.67583134  0.65138175    -0.04500
H1112       H  0.41913048  0.54197753  0.59647173    -0.04700
C1113       C  0.43709421  0.66132427  0.65773413     0.88900
C1114       C  0.49140129  0.59298927  0.67368151     0.89500
C1115       C  0.42613992  0.56515272  0.60814453     0.89500
H1116       H  0.31930354  0.56980570  0.67252375    -0.04600
O1117       O  0.37378836  0.57901261  0.71981736    -0.73700
Mg1118     Mg  0.39882547  0.61719654  0.61327463     1.58000
H1119       H  0.41227246  0.62435602  0.73592311    -0.04600
C1120       C  0.03624852  0.70904382  0.66708200     0.94500
O1121       O  0.49450378  0.66510939  0.59472862    -0.80900
C1122       C  0.47277477  0.66246291  0.57714333     0.94600
O1123       O  0.47799591  0.57924681  0.75231609    -0.80900
Mg1124     Mg  0.34452383  0.52535557  0.69896398     1.58200
O1125       O  0.02020436  0.69515682  0.64577408    -0.79200
O1126       O  0.30214694  0.97049990  0.63885735    -0.80900
O1127       O  0.34848046  0.80556975  0.66371140    -0.86500
C1128       C  0.42622727  0.86469611  0.61074481     0.89500
Mg1129     Mg  0.34297088  0.82633825  0.70027624     1.58100
O1130       O  0.43570860  0.79898607  0.64243208    -0.86200
O1131       O  0.35209586  0.76213693  0.64571013    -0.73500
C1132       C  0.99966325  0.89480978  0.75170017     0.94600
O1133       O  0.38494887  0.88954744  0.65220529    -0.73400
O1134       O  0.47416494  0.90131148  0.75031498    -0.80900
Mg1135     Mg  0.35399611  0.83729412  0.63002771     1.58000
C1136       C  0.03652334  0.82897859  0.67267333     0.94500
O1137       O  0.31878125  0.78819900  0.60696976    -0.79100
H1138       H  0.41827545  0.74868883  0.65163518    -0.04500
C1139       C  0.49103921  0.89857433  0.67355063     0.89500
O1140       O  0.37034632  0.80069475  0.72211705    -0.73600
O1141       O  0.40174008  0.83774624  0.62032907    -0.86400
O1142       O  0.02136246  0.82621562  0.65068117    -0.79200
C1143       C  0.46573971  0.81050024  0.57663092     0.94600
C1144       C  0.32429210  0.77647937  0.58592534     0.94500
Mg1145     Mg  0.47379685  0.83337500  0.70636888     1.58000
O1146       O  0.00565651  0.87595313  0.73572750    -0.79100
O1147       O  0.44276312  0.78307108  0.68154085    -0.73400
O1148       O  0.43459030  0.80528904  0.57934759    -0.79200
O1149       O  0.30386645  0.83595630  0.63916171    -0.80900
O1150       O  0.39330039  0.87048348  0.75418408    -0.79200
C1151       C  0.43184947  0.77581408  0.65801146     0.88900
O1152       O  0.42656092  0.83495683  0.71534814    -0.86400
O1153       O  0.48173342  0.86696762  0.67267747    -0.86500
O1154       O  0.47556348  0.91017933  0.68816080    -0.73600
Mg1155     Mg  0.39499393  0.78692198  0.61344300     1.58000
O1156       O  0.48816547  0.82204792  0.59531825    -0.80900
H1157       H  0.31777144  0.75564238  0.67499482    -0.04700
O1158       O  0.39189067  0.87317298  0.69118149    -0.86200
H1159       H  0.40842798  0.92349483  0.68251384    -0.04500
H1160       H  0.40795278  0.79176686  0.73753585    -0.04700
C1161       C  0.39533298  0.89649102  0.67585781     0.88900
C1162       C  0.33842103  0.77382945  0.66207191     0.89500
C1163       C  0.40215453  0.80863629  0.72562935     0.89500
H1164       H  0.51219410  0.91666912  0.66092831    -0.04600
O1165       O  0.45808110  0.87261344  0.61419985    -0.73700
Mg1166     Mg  0.43239884  0.88663492  0.71978732     1.58000
H1167       H  0.42046836  0.88211381  0.59950848    -0.04600
C1168       C  0.29142950  0.84024358  0.66030394     0.94500
O1169       O  0.33911762  0.85050838  0.73843178    -0.80900
C1170       C  0.36170094  0.86395490  0.75679527     0.94600
O1171       O  0.35276574  0.77597765  0.58218594    -0.80900
Mg1172     Mg  0.48541674  0.84587018  0.63491952     1.58200
O1173       O  0.30669575  0.84462180  0.68236040    -0.79200
O1174       O  0.02472467  0.83331114  0.69433446    -0.80900
C1175       C  0.30676516  0.89251084  0.85289265     0.04100
C1176       C  0.29638017  0.91837838  0.85127002     0.04100
C1177       C  0.30121520  0.93656814  0.82762449    -0.16400
C1178       C  0.31447724  0.92847187  0.80527574     0.04100
C1179       C  0.32153556  0.90034459  0.80616306     0.04100
C1180       C  0.31881764  0.88363912  0.83028323    -0.16400
H1181       H  0.32445373  0.86227345  0.83136024     0.06200
H1182       H  0.29468658  0.95735243  0.82658529     0.06200
C1183       C  0.98861207  0.73134783  0.47223333     0.04100
C1184       C  0.99249830  0.76542753  0.47248347     0.04100
C1185       C  0.99119454  0.78033607  0.49671343    -0.16400
C1186       C  0.49312325  0.76512782  0.52445211     0.04100
C1187       C  0.49011085  0.73138855  0.52410005     0.04100
C1188       C  0.98150287  0.71250135  0.49582285    -0.16400
H1189       H  0.97669814  0.68577633  0.49524676     0.06200
H1190       H  0.99529870  0.80677951  0.49698882     0.06200
C1191       C  0.22666454  0.74413827  0.47918368     0.04100
C1192       C  0.25813276  0.77711384  0.48037706     0.04100
C1193       C  0.28243857  0.78318921  0.50057087    -0.16400
C1194       C  0.27531890  0.75801134  0.52023820     0.04100
C1195       C  0.24211635  0.72671555  0.52042575     0.04100
C1196       C  0.21877777  0.71991496  0.49953483    -0.16400
H1197       H  0.19394818  0.69529429  0.49912409     0.06200
H1198       H  0.30724842  0.80779765  0.50095720     0.06200
C1199       C  0.25476791  0.97476447  0.48052375     0.04100
C1200       C  0.22001681  0.96952964  0.48006255     0.04100
C1201       C  0.20887982  0.98317705  0.50070122    -0.16400
C1202       C  0.23422697  0.50410084  0.52199462     0.04100
C1203       C  0.26784715  0.50710393  0.52379037     0.04100
C1204       C  0.27623869  0.99117082  0.50254121    -0.16400
H1205       H  0.30179316  0.99293149  0.50391337     0.06200
H1206       H  0.18287258  0.98042658  0.49983636     0.06200
C1207       C  0.00144330  0.96667144  0.00351003     0.04100
C1208       C  0.03234535  0.99958524  0.00647018     0.04100
C1209       C  0.03020781  0.53088395  0.99960789     0.04100
C1210       C  0.99703285  0.52809028  0.99597347     0.04100
C1211       C  0.46635794  0.99498720  0.99510346     0.04100
C1212       C  0.46854666  0.96393748  0.99615857     0.04100
C1213       C  0.36277842  0.66085549  0.33021919     0.04100
C1214       C  0.36728513  0.69493649  0.33197016     0.04100
C1215       C  0.33764338  0.69920039  0.33565402     0.04100
C1216       C  0.30348229  0.66936076  0.33745738     0.04100
C1217       C  0.29908049  0.63531620  0.33509049     0.04100
C1218       C  0.32870834  0.63089986  0.33157765     0.04100
C1219       C  0.19478725  0.83179689  0.66072133     0.04100
C1220       C  0.19556072  0.86396654  0.66442688     0.04100
C1221       C  0.16395930  0.86428974  0.66880046     0.04100
C1222       C  0.13145834  0.83240567  0.66837910     0.04100
C1223       C  0.13075422  0.80029916  0.66406702     0.04100
C1224       C  0.16241269  0.79978560  0.66004437     0.04100
C1225       C  0.06960797  0.82956901  0.67267992    -0.11400
C1226       C  0.09831501  0.83208722  0.67148670    -0.13000
C1227       C  0.25747705  0.83717991  0.65945131    -0.11400
C1228       C  0.22800884  0.83249462  0.65911535    -0.13000
C1229       C  0.35193943  0.87394178  0.78164505    -0.14600
C1230       C  0.33028218  0.88742289  0.78187632    -0.29800
H1231       H  0.36581366  0.87407068  0.79936363     0.14400
H1232       H  0.31946709  0.89006047  0.76337153     0.15000
C1233       C  0.30311261  0.76589485  0.54012611    -0.14600
C1234       C  0.29648736  0.76424164  0.56591724    -0.29800
H1235       H  0.33011147  0.77658072  0.53340113     0.14400
H1236       H  0.27031037  0.75771764  0.57252612     0.15000
C1237       C  0.47471524  0.80113813  0.55105736    -0.14600
C1238       C  0.48955198  0.78070371  0.54959344    -0.29800
H1239       H  0.46370709  0.80603979  0.53352464     0.14400
H1240       H  0.49693488  0.77299954  0.56773965     0.15000
C1241       C  0.25788730  0.92279489  0.66184713    -0.11400
C1242       C  0.22923475  0.89664917  0.66331708    -0.13000
C1243       C  0.06873061  0.74168574  0.66576635    -0.11400
C1244       C  0.09720488  0.76787678  0.66458580    -0.13000
C1245       C  0.32218541  0.95061779  0.78150582    -0.14600
C1246       C  0.34734543  0.98479507  0.78175269    -0.29800
H1247       H  0.30992190  0.93797506  0.76305685     0.14400
H1248       H  0.36145151  0.49599762  0.79967333     0.15000
C1249       C  0.28860853  0.51783672  0.54856595    -0.14600
C1250       C  0.30509066  0.55084471  0.55817561    -0.29800
H1251       H  0.29282425  0.49802677  0.55799754     0.14400
H1252       H  0.30411180  0.57168768  0.54740257     0.15000
C1253       C  0.47636930  0.70750809  0.54720766    -0.14600
C1254       C  0.48669776  0.68418613  0.55345072    -0.29800
H1255       H  0.45738316  0.70949596  0.55982049     0.14400
H1256       H  0.50819740  0.68397873  0.54297293     0.15000
C1257       C  0.03806032  0.89534595  0.78753943    -0.14600
C1258       C  0.02190203  0.91034638  0.77506861    -0.29800
H1259       H  0.03524403  0.87073713  0.78040633     0.14400
H1260       H  0.02140540  0.93243234  0.78424003     0.15000
C1261       C  0.02963420  0.61668891  0.79203320    -0.14600
C1262       C  0.03598805  0.62607843  0.76663544    -0.29800
H1263       H  0.00281221  0.59810393  0.79802148     0.14400
H1264       H  0.56091940  0.64217160  0.76353075     0.15000
C1265       C  0.16164927  0.76653237  0.65563782    -0.11400
C1266       C  0.16145394  0.73896148  0.65313100    -0.13000
C1267       C  0.16663421  0.92540589  0.67633927    -0.11400
C1268       C  0.16517863  0.89742536  0.67359905    -0.13000
C1269       C  0.09165735  0.98322328  0.77898708    -0.14600
C1270       C  0.10378409  0.96318389  0.78938664    -0.29800
H1271       H  0.07561859  0.48962621  0.78962956     0.14400
H1272       H  0.12504755  0.96128378  0.77998352     0.15000
C1273       C  0.10502151  0.63244427  0.78838202    -0.14600
C1274       C  0.13554352  0.65465875  0.77617630    -0.29800
H1275       H  0.08789946  0.60655424  0.78005923     0.14400
H1276       H  0.15127967  0.68168261  0.78282807     0.15000
C1277       C  0.19075446  0.50403642  0.55361128    -0.14600
C1278       C  0.22253658  0.52079711  0.54198075    -0.29800
H1279       H  0.17215825  0.47694101  0.54842022     0.14400
H1280       H  0.24186910  0.54663869  0.54913260     0.15000
C1281       C  0.24537026  0.68689238  0.55413952    -0.14600
C1282       C  0.22859871  0.70222407  0.54299872    -0.29800
H1283       H  0.26960349  0.69012873  0.54569463     0.14400
H1284       H  0.20265786  0.69570891  0.55023663     0.15000
C1285       C  0.49217260  0.58605578  0.99576430    -0.11400
C1286       C  0.49493004  0.56014953  0.99772081    -0.13000
C1287       C  0.00347651  0.93447164  0.00476391    -0.11400
C1288       C  0.00563736  0.90804087  0.00569229    -0.13000
C1289       C  0.03070043  0.84560327  0.88367623    -0.14600
C1290       C  0.04541289  0.88092717  0.88413544    -0.29800
H1291       H  0.03053244  0.83248735  0.86552004     0.14400
H1292       H  0.04832928  0.89383903  0.90291229     0.15000
C1293       C  0.05436202  0.67148046  0.88031513    -0.14600
C1294       C  0.07003552  0.70523696  0.88857766    -0.29800
H1295       H  0.02957560  0.65207058  0.88908089     0.14400
H1296       H  0.09296430  0.72525124  0.87818575     0.15000
C1297       C  0.06103321  0.56533794  0.00234927    -0.11400
C1298       C  0.08640291  0.59428121  0.00417081    -0.13000
C1299       C  0.43698707  0.92987777  0.99343069    -0.11400
C1300       C  0.41004109  0.90201462  0.99175720    -0.13000
C1301       C  0.27420903  0.85596376  0.89081518    -0.14600
C1302       C  0.30431326  0.87292328  0.87725693    -0.29800
H1303       H  0.25079667  0.85579935  0.88348842     0.14400
H1304       H  0.32666017  0.86991523  0.88275796     0.15000
C1305       C  0.12164727  0.67062314  0.88187457    -0.14600
C1306       C  0.15673244  0.68458325  0.88305318    -0.29800
H1307       H  0.10711988  0.66493457  0.90024597     0.14400
H1308       H  0.17281646  0.69411682  0.86549347     0.15000
C1309       C  0.40805429  0.49754464  0.99685537    -0.11400
C1310       C  0.43368155  0.49396002  0.99671556    -0.13000
C1311       C  0.06540037  0.00017638  0.01030595    -0.11400
C1312       C  0.09100551  0.99678787  0.01190198    -0.13000
C1313       C  0.14843855  0.96533967  0.88733600    -0.14600
C1314       C  0.11296537  0.95031473  0.88622496    -0.29800
H1315       H  0.16287621  0.96665943  0.86961033     0.14400
H1316       H  0.09855649  0.94615695  0.90445366     0.15000
C1317       C  0.27977991  0.92695771  0.87328983    -0.14600
C1318       C  0.29187568  0.93116711  0.89795080    -0.29800
H1319       H  0.25815793  0.93157554  0.86875815     0.14400
H1320       H  0.31556116  0.92991125  0.90209744     0.15000
C1321       C  0.43762134  0.81688110  0.11620703    -0.14600
C1322       C  0.42148717  0.78457125  0.10532940    -0.29800
H1323       H  0.46327216  0.83679665  0.10901993     0.14400
H1324       H  0.39762670  0.76380332  0.11429224     0.15000
C1325       C  0.37403335  0.82494192  0.11560066    -0.14600
C1326       C  0.33900725  0.81225647  0.11430348    -0.29800
H1327       H  0.38903881  0.83202610  0.09742209     0.14400
H1328       H  0.32280495  0.80149629  0.13169824     0.15000
C1329       C  0.32441908  0.59576008  0.32971180    -0.11400
C1330       C  0.32327218  0.56761323  0.32860289    -0.13000
C1331       C  0.34236215  0.73429052  0.33717068    -0.11400
C1332       C  0.34526704  0.76309348  0.33781987    -0.13000
C1333       C  0.26806209  0.96111685  0.45918083    -0.14600
C1334       C  0.29997246  0.98088754  0.44794295    -0.29800
H1335       H  0.24986085  0.93563219  0.45071497     0.14400
H1336       H  0.31683855  0.00779630  0.45450413     0.15000
C1337       C  0.26625428  0.79927852  0.43495544    -0.14600
C1338       C  0.26712084  0.80546913  0.46079272    -0.29800
H1339       H  0.26017762  0.77331899  0.42827997     0.14400
H1340       H  0.27745749  0.83223735  0.46779301     0.15000
C1341       C  0.36645588  0.85652336  0.21615384    -0.14600
C1342       C  0.38281176  0.83778917  0.21357931    -0.29800
H1343       H  0.36450299  0.87093360  0.19951640     0.14400
H1344       H  0.38813346  0.82689462  0.23101208     0.15000
C1345       C  0.23503765  0.57907486  0.33676753    -0.11400
C1346       C  0.26391952  0.60487957  0.33613616    -0.13000
C1347       C  0.40259798  0.72561508  0.33003676    -0.11400
C1348       C  0.43156402  0.75149661  0.32854762    -0.13000
C1349       C  0.02182504  0.82042650  0.44591635    -0.14600
C1350       C  0.99844572  0.78578894  0.44766086    -0.29800
H1351       H  0.03743951  0.83437658  0.46299887     0.14400
H1352       H  0.98528485  0.77161833  0.42990143     0.15000
C1353       C  0.19428290  0.95044407  0.45850890    -0.14600
C1354       C  0.20205075  0.95861775  0.43299075    -0.29800
H1355       H  0.16698713  0.93293747  0.46402173     0.14400
H1356       H  0.22836402  0.97921721  0.42764271     0.15000
C1357       C  0.46468143  0.87404306  0.22592181    -0.14600
C1358       C  0.45354436  0.84423393  0.21181346    -0.29800
H1359       H  0.45741531  0.89322647  0.21961881     0.14400
H1360       H  0.46408403  0.82704087  0.21625215     0.15000
C1361       C  0.43966497  0.63195469  0.12394762    -0.14600
C1362       C  0.47198156  0.64970603  0.11315360    -0.29800
H1363       H  0.41884546  0.63550880  0.11557981     0.14400
H1364       H  0.49256139  0.64431827  0.11931238     0.15000
C1365       C  0.35203080  0.53344232  0.11743424    -0.14600
C1366       C  0.36904369  0.56653131  0.12705464    -0.29800
H1367       H  0.35818354  0.51401452  0.12509098     0.14400
H1368       H  0.36534255  0.58659690  0.11757119     0.15000
C1369       C  0.39781927  0.54240182  0.21540683    -0.14600
C1370       C  0.41260199  0.52526973  0.22651151    -0.29800
H1371       H  0.37321832  0.53899401  0.22329568     0.14400
H1372       H  0.43499383  0.52546369  0.21711309     0.15000
C1373       C  0.22258400  0.64823412  0.13031293    -0.14600
C1374       C  0.20224215  0.64491318  0.10964865    -0.29800
H1375       H  0.25010567  0.66866598  0.13099375     0.14400
H1376       H  0.17478242  0.62410976  0.10971178     0.15000
C1377       C  0.22577812  0.58241281  0.13193933    -0.14600
C1378       C  0.21367168  0.57803465  0.10715993    -0.29800
H1379       H  0.24583275  0.57574345  0.13704851     0.14400
H1380       H  0.19065444  0.58042866  0.10307367     0.15000
C1381       C  0.16494950  0.55367789  0.21872619    -0.14600
C1382       C  0.14595069  0.51829251  0.21706008    -0.29800
H1383       H  0.17067048  0.56602225  0.23799729     0.14400
H1384       H  0.13906064  0.00527964  0.19606622     0.15000
C1385       C  0.24551319  0.67428814  0.34345667    -0.11400
C1386       C  0.27251712  0.67319854  0.34130602    -0.13000
C1387       C  0.42134067  0.65739049  0.32688380    -0.11400
C1388       C  0.39376049  0.65721887  0.32772914    -0.13000
C1389       C  0.99355885  0.71552731  0.44781070    -0.14600
C1390       C  0.01355398  0.70010279  0.44769846    -0.29800
H1391       H  0.98388777  0.71956933  0.42926627     0.14400
H1392       H  0.02639127  0.69918162  0.46570888     0.15000
C1393       C  0.18923683  0.75017703  0.44487672    -0.14600
C1394       C  0.20294004  0.73199094  0.45612587    -0.29800
H1395       H  0.19283497  0.77428299  0.45372928     0.14400
H1396       H  0.19587990  0.70616829  0.44841702     0.15000
C1397       C  0.47257134  0.59941048  0.23166319    -0.14600
C1398       C  0.47617505  0.59626803  0.20585135    -0.29800
H1399       H  0.95144948  0.59053179  0.23291835     0.14400
H1400       H  0.50125226  0.60077909  0.19816835     0.15000
C1401       C  0.15722430  0.61728833  0.21510383    -0.14600
C1402       C  0.16710170  0.65046176  0.22260965    -0.29800
H1403       H  0.13586658  0.59562363  0.22566291     0.14400
H1404       H  0.19070114  0.67246846  0.21444993     0.15000
O1405       O  0.52353885  0.13907909  0.33136525    -0.86500
C1406       C  0.59955301  0.20441965  0.27900045     0.89500
Mg1407     Mg  0.51446894  0.15691560  0.36841700     1.58100
O1408       O  0.61595643  0.14253000  0.31038495    -0.86200
O1409       O  0.53199992  0.09915853  0.31236478    -0.73500
C1410       C  0.67104181  0.23815891  0.42224969     0.94600
O1411       O  0.55267176  0.22175594  0.32100462    -0.73400
O1412       O  0.64398001  0.24150306  0.42023864    -0.80900
Mg1413     Mg  0.52618876  0.16989083  0.29778195     1.58000
C1414       C  0.71483588  0.17726571  0.34368194     0.94500
O1415       O  0.99535761  0.11902497  0.27404538    -0.79100
H1416       H  0.60180841  0.09289300  0.31933215    -0.04500
C1417       C  0.66229157  0.24160755  0.34375236     0.89500
O1418       O  0.54561901  0.13542256  0.39030669    -0.73600
O1419       O  0.57679207  0.17565920  0.28755201    -0.86400
O1420       O  0.70078815  0.17724195  0.32181666    -0.79200
C1421       C  0.65161328  0.15810238  0.24632987     0.94600
C1422       C  0.00235813  0.11230980  0.25144206     0.94500
Mg1423     Mg  0.64994183  0.17695673  0.37519181     1.58000
O1424       O  0.67820806  0.22076423  0.40569907    -0.79100
O1425       O  0.62260450  0.12704170  0.34981636    -0.73400
O1426       O  0.61808323  0.14384067  0.24784795    -0.79200
O1427       O  0.97223626  0.16300683  0.30584045    -0.80900
O1428       O  0.56158282  0.20276052  0.42306137    -0.79200
C1429       C  0.61330116  0.11980911  0.32597202     0.88900
O1430       O  0.60087094  0.17422705  0.38420964    -0.86400
O1431       O  0.65509973  0.21059995  0.34233668    -0.86500
O1432       O  0.64491290  0.25104137  0.35831042    -0.73600
Mg1433     Mg  0.57566882  0.12664099  0.28080534     1.58000
O1434       O  0.67190814  0.17622771  0.26494610    -0.80900
H1435       H  0.49616659  0.08832563  0.34144465    -0.04700
O1436       O  0.56083171  0.20683472  0.36025352    -0.86200
H1437       H  0.57303464  0.25605594  0.35148495    -0.04500
H1438       H  0.58599382  0.13139251  0.40620133    -0.04700
C1439       C  0.56230730  0.22924057  0.34479869     0.88900
C1440       C  0.51627052  0.10815572  0.32902977     0.89500
C1441       C  0.57809871  0.14662758  0.39424389     0.89500
H1442       H  0.68311816  0.26100642  0.33154076    -0.04600
O1443       O  0.63197817  0.21631215  0.28384893    -0.73700
Mg1444     Mg  0.60160855  0.22349752  0.38929271     1.58000
H1445       H  0.59161553  0.22020880  0.26777012    -0.04600
C1446       C  0.95904767  0.16663355  0.32693693     0.94500
O1447       O  0.50690106  0.17809062  0.40711048    -0.80900
C1448       C  0.52901574  0.19276137  0.42564266     0.94600
O1449       O  0.53380622  0.11356309  0.24870784    -0.80900
Mg1450     Mg  0.66287759  0.19363430  0.30453702     1.58200
O1451       O  0.97452860  0.17184957  0.34897271    -0.79200
O1452       O  0.70245379  0.18007670  0.36559929    -0.80900
C1453       C  0.67676070  0.07736419  0.19561193     0.04100
C1454       C  0.67689075  0.10984543  0.19483363     0.04100
C1455       C  0.69387572  0.13302071  0.17375044    -0.16400
C1456       C  0.71023374  0.12445320  0.15365448     0.04100
C1457       C  0.71005775  0.09227347  0.15449666     0.04100
C1458       C  0.69363627  0.06922420  0.17551204    -0.16400
H1459       H  0.69426051  0.04485237  0.17630148     0.06200
H1460       H  0.69336017  0.15738480  0.17231375     0.06200
C1461       C  0.91389344  0.06477669  0.19072167     0.04100
C1462       C  0.94955681  0.09132211  0.18676360     0.04100
C1463       C  0.95810619  0.11273734  0.16439662    -0.16400
C1464       C  0.93248359  0.10768997  0.14540558     0.04100
C1465       C  0.89802126  0.07825576  0.14793286     0.04100
C1466       C  0.88906698  0.05807923  0.17092837    -0.16400
H1467       H  0.86218018  0.03684108  0.17351313     0.06200
H1468       H  0.98472625  0.13462262  0.16262211     0.06200
O1469       O  0.64960594  0.45272858  0.33529070    -0.86500
C1470       C  0.57224033  0.43226931  0.38898536     0.94900
Mg1471     Mg  0.65243943  0.47714737  0.29790341     1.58100
O1472       O  0.56517601  0.35778110  0.35729702    -0.86200
O1473       O  0.64841337  0.40670866  0.35299044    -0.73500
C1474       C  0.99350733  0.38348801  0.24618450     0.94600
O1475       O  0.60831336  0.49511135  0.34513513    -0.73400
O1476       O  0.51746593  0.41198788  0.24651231    -0.80900
Mg1477     Mg  0.64292521  0.47887321  0.36878455     1.58000
C1478       C  0.96495921  0.28565892  0.32576027     0.94500
O1479       O  0.67983703  0.46918136  0.39511410    -0.79100
H1480       H  0.58482900  0.32659955  0.34827026    -0.04500
C1481       C  0.50533038  0.39688392  0.32469889     0.89500
O1482       O  0.62732994  0.42347327  0.27694112    -0.73600
O1483       O  0.59748063  0.43051925  0.37991905    -0.86400
O1484       O  0.97983334  0.29928600  0.34754034    -0.79200
C1485       C  0.53561762  0.33909402  0.42346346     0.94600
C1486       C  0.67666440  0.44850202  0.41372323     0.94500
Mg1487     Mg  0.52512041  0.35024173  0.29350916     1.58000
O1488       O  0.99101165  0.36088286  0.26301978    -0.79100
O1489       O  0.55893416  0.33441810  0.31830184    -0.73400
O1490       O  0.56736675  0.36361819  0.42032696    -0.79200
O1491       O  0.69474464  0.03019837  0.35662063    -0.80900
O1492       O  0.60124590  0.46983324  0.24193853    -0.79200
C1493       C  0.56998760  0.33887666  0.34182958     0.88900
O1494       O  0.57045588  0.39954987  0.28213763    -0.86400
O1495       O  0.51733531  0.37678740  0.32664156    -0.86500
O1496       O  0.51826313  0.42251475  0.30872790    -0.73600
Mg1497     Mg  0.60619404  0.38702188  0.38567012     1.58000
O1498       O  0.51281743  0.32930284  0.40510310    -0.80900
H1499       H  0.68202794  0.43548718  0.32374210    -0.04700
O1500       O  0.60177265  0.47240457  0.30576782    -0.86200
H1501       H  0.58142844  0.50271763  0.31575560    -0.04500
H1502       H  0.59186680  0.37617785  0.26142075    -0.04700
C1503       C  0.59673948  0.49073399  0.32171265     0.88900
C1504       C  0.66109438  0.43214089  0.33680223     0.89500
C1505       C  0.59608367  0.39873582  0.27285103     0.89500
H1506       H  0.48380091  0.39302662  0.33729962    -0.04600
O1507       O  0.54072780  0.40814833  0.38489448    -0.73700
Mg1508     Mg  0.56120057  0.44335589  0.27670136     1.58000
H1509       H  0.57706278  0.45528148  0.40006616    -0.04600
C1510       C  0.70455222  0.04633107  0.33491511     0.94500
O1511       O  0.65466646  0.50344465  0.25929937    -0.80900
C1512       C  0.63297003  0.49535037  0.24040727     0.94600
O1513       O  0.64964997  0.41804654  0.41589629    -0.80900
Mg1514     Mg  0.51486279  0.35389362  0.36502425     1.58200
O1515       O  0.68851453  0.03291445  0.31344245    -0.79200
O1516       O  0.97635220  0.30102917  0.30385033    -0.80900
O1517       O  0.80603438  0.35111768  0.33674809    -0.86500
C1518       C  0.86750007  0.42998209  0.38863187     0.89500
Mg1519     Mg  0.82389000  0.34666410  0.29842910     1.58100
O1520       O  0.79759154  0.43676938  0.36032588    -0.86200
O1521       O  0.76315163  0.35307105  0.35726615    -0.73500
C1522       C  0.89944998  0.00537987  0.25021471     0.94600
O1523       O  0.89084463  0.39158991  0.34334340    -0.73400
O1524       O  0.89011753  0.47797422  0.24660420    -0.80900
Mg1525     Mg  0.84155430  0.35870383  0.36849322     1.58000
C1526       C  0.82727636  0.03814032  0.32763938     0.94500
O1527       O  0.79656406  0.32308021  0.39521084    -0.79100
H1528       H  0.74616123  0.41739320  0.35363501    -0.04500
C1529       C  0.89440727  0.49387828  0.32412895     0.89500
O1530       O  0.79428395  0.37200573  0.27944721    -0.73600
O1531       O  0.83978273  0.40494656  0.38047628    -0.86400
O1532       O  0.82628654  0.02353240  0.34953960    -0.79200
C1533       C  0.81282472  0.47024021  0.42486436     0.94600
C1534       C  0.78299007  0.32749234  0.41581301     0.94500
Mg1535     Mg  0.82556665  0.47413872  0.29584948     1.58000
O1536       O  0.87915469  0.01028490  0.26552325    -0.79100
O1537       O  0.77748820  0.44180296  0.32226018    -0.73400
O1538       O  0.80240925  0.43744089  0.42273177    -0.79200
O1539       O  0.84287855  0.30962204  0.35717124    -0.80900
O1540       O  0.86066591  0.39716116  0.24258330    -0.79200
C1541       C  0.77272021  0.43168058  0.34599591     0.88900
O1542       O  0.82813582  0.42843261  0.28493517    -0.86400
O1543       O  0.86251023  0.48263068  0.32706846    -0.86500
O1544       O  0.90584689  0.47984460  0.30797532    -0.73600
Mg1545     Mg  0.78794013  0.39666814  0.38893046     1.58000
O1546       O  0.82797581  0.49181835  0.40623020    -0.80900
H1547       H  0.75536812  0.31837331  0.32800902    -0.04700
O1548       O  0.87064462  0.39663774  0.30528380    -0.86200
H1549       H  0.92211128  0.41596057  0.31190920    -0.04500
H1550       H  0.78237311  0.40819922  0.26556126    -0.04700
C1551       C  0.89556684  0.40167391  0.31957926     0.88900
C1552       C  0.77421789  0.33979043  0.34012106     0.89500
C1553       C  0.80102716  0.40336923  0.27603889     0.89500
H1554       H  0.91299189  0.51553062  0.33618765    -0.04600
O1555       O  0.87510982  0.46143694  0.38433309    -0.73700
Mg1556     Mg  0.87994581  0.43642384  0.27678709     1.58000
H1557       H  0.88613540  0.42499623  0.39898099    -0.04600
C1558       C  0.84594982  0.29768631  0.33525707     0.94500
O1559       O  0.84501624  0.34413933  0.25863346    -0.80900
C1560       C  0.85590889  0.36629967  0.23995923     0.94600
O1561       O  0.78018572  0.35476530  0.41946585    -0.80900
Mg1562     Mg  0.84570515  0.48709834  0.36576335     1.58200
O1563       O  0.84609506  0.31207015  0.31354202    -0.79200
O1564       O  0.83270523  0.02735119  0.30586785    -0.80900
C1565       C  0.92740472  0.32768249  0.19177423     0.04100
C1566       C  0.89740355  0.33180116  0.19070313     0.04100
C1567       C  0.87739503  0.32308981  0.16749516    -0.16400
C1568       C  0.88525454  0.30830635  0.14588975     0.04100
C1569       C  0.91350054  0.30125675  0.14775984     0.04100
C1570       C  0.93429931  0.31132563  0.17067007    -0.16400
H1571       H  0.95650931  0.30687930  0.17192719     0.06200
H1572       H  0.85387858  0.32535938  0.16679296     0.06200
O1573       O  0.71647675  0.03212957  0.00766285    -0.86500
C1574       C  0.73547373  0.47434914  0.06100369     0.89500
Mg1575     Mg  0.69108041  0.01276170  0.96985115     1.58100
O1576       O  0.81034467  0.03607508  0.02911249    -0.86200
O1577       O  0.76420859  0.07434239  0.02581572    -0.73500
C1578       C  0.77896331  0.44361174  0.91848110     0.94600
O1579       O  0.67236607  0.45272823  0.01682882    -0.73400
O1580       O  0.74999477  0.44344796  0.91583809    -0.80900
Mg1581     Mg  0.69363340  0.50393959  0.04085206     1.58000
C1582       C  0.87657838  0.00150610  0.99763590     0.94500
O1583       O  0.70225801  0.04422346  0.06914103    -0.79100
H1584       H  0.84530419  0.08630839  0.02129319    -0.04500
C1585       C  0.76168565  0.43785242  0.99501098     0.89500
O1586       O  0.74516359  0.03952266  0.94912694    -0.73600
O1587       O  0.74033152  0.50218073  0.05143926    -0.86400
O1588       O  0.86401392  0.00326813  0.01975103    -0.79200
C1589       C  0.83116264  0.02459795  0.09397395     0.94600
C1590       C  0.72356751  0.05957521  0.08800086     0.94500
Mg1591     Mg  0.81289509  0.00264514  0.96601214     1.58000
O1592       O  0.79713058  0.45444499  0.93926608    -0.79100
O1593       O  0.83406200  0.05323225  0.99030849    -0.73400
O1594       O  0.81032845  0.03682414  0.09113056    -0.79200
O1595       O  0.64424899  0.50617862  0.03104640    -0.80900
O1596       O  0.69862221  0.47429508  0.91348774    -0.79200
C1597       C  0.83078699  0.05955376  0.01414988     0.88900
O1598       O  0.76594599  0.00423742  0.95559698    -0.86400
O1599       O  0.78384928  0.46929609  0.99761518    -0.86500
O1600       O  0.73666790  0.42762473  0.97848906    -0.73600
Mg1601     Mg  0.78343342  0.05020855  0.05760615     1.58000
O1602       O  0.83513380  0.00633198  0.07629626    -0.80900
H1603       H  0.73658517  0.08247274  0.99731644    -0.04700
O1604       O  0.69300134  0.46757352  0.97682383    -0.86200
H1605       H  0.66008744  0.41766754  0.98704597    -0.04500
H1606       H  0.79245966  0.04871948  0.93501267    -0.04700
C1607       C  0.67436264  0.44492928  0.99305893     0.88900
C1608       C  0.73865254  0.06362711  0.00974506     0.89500
C1609       C  0.76900573  0.03141838  0.94602773     0.89500
H1610       H  0.76338370  0.41864537  0.00726280    -0.04600
O1611       O  0.75648456  0.46305662  0.05639507    -0.73700
Mg1612     Mg  0.71999923  0.45474423  0.94727976     1.58000
H1613       H  0.71229110  0.45878458  0.07283830    -0.04600
C1614       C  0.62750515  0.50154229  0.00970429     0.94500
O1615       O  0.66430595  0.49332988  0.93056602    -0.80900
C1616       C  0.67317087  0.48047462  0.91153491     0.94600
O1617       O  0.75414227  0.06288621  0.08878873    -0.80900
Mg1618     Mg  0.80934328  0.48618725  0.03499851     1.58200
O1619       O  0.63928100  0.49831434  0.98768859    -0.79200
O1620       O  0.86135081  0.99977384  0.97608800    -0.80900
O1621       O  0.78370599  0.31755998  0.99265398    -0.86500
C1622       C  0.76613486  0.23728316  0.94346809     0.89500
Mg1623     Mg  0.80781688  0.32206114  0.03028506     1.58100
O1624       O  0.68997548  0.22573491  0.97572127    -0.86200
O1625       O  0.73297255  0.30900672  0.97804076    -0.73500
C1626       C  0.72044947  0.16562365  0.08574231     0.94600
O1627       O  0.83085004  0.28025333  0.98481767    -0.73400
O1628       O  0.75120928  0.19244571  0.08527601    -0.80900
Mg1629     Mg  0.81040583  0.30988189  0.95947593     1.58000
C1630       C  0.61980686  0.12658705  0.00653297     0.94500
O1631       O  0.79654361  0.34026451  0.92858594    -0.79100
H1632       H  0.65460754  0.24112745  0.98207740    -0.04500
C1633       C  0.73384325  0.17223092  0.00787878     0.89500
O1634       O  0.75379199  0.29479035  0.05092764    -0.73600
O1635       O  0.76281695  0.26208446  0.95143574    -0.86400
O1636       O  0.63318333  0.14116312  0.98464719    -0.79200
C1637       C  0.67384082  0.19520843  0.90985701     0.94600
C1638       C  0.77066025  0.33371734  0.91346666     0.94500
Mg1639     Mg  0.68523322  0.18995992  0.03846191     1.58000
O1640       O  0.69831348  0.15865285  0.06733397    -0.79100
O1641       O  0.66445682  0.21920219  0.01367176    -0.73400
O1642       O  0.69723192  0.22711271  0.91298104    -0.79200
O1643       O  0.86082342  0.36031315  0.96906915    -0.80900
O1644       O  0.80514835  0.27312687  0.08568185    -0.79200
C1645       C  0.66882592  0.22886072  0.98988009     0.88900
O1646       O  0.73333949  0.23815023  0.04774933    -0.86400
O1647       O  0.71211682  0.18219582  0.00583320    -0.86500
O1648       O  0.76036637  0.18783081  0.02289782    -0.73600
Mg1649     Mg  0.71579408  0.26572660  0.94696280     1.58000
O1650       O  0.66376800  0.17282721  0.92836786    -0.80900
H1651       H  0.76317575  0.34710217  0.00425908    -0.04700
O1652       O  0.80572989  0.27230139  0.02316887    -0.86200
H1653       H  0.84045323  0.25648893  0.01537934    -0.04500
H1654       H  0.70751359  0.25810009  0.06708660    -0.04700
C1655       C  0.82636216  0.26927361  0.00833624     0.88900
C1656       C  0.76055489  0.32586008  0.99191131     0.89500
C1657       C  0.73061019  0.26320537  0.05593185     0.89500
H1658       H  0.73071732  0.15034631  0.99608932    -0.04600
O1659       O  0.74322362  0.20557245  0.94831794    -0.73700
Mg1660     Mg  0.77949985  0.23265508  0.05302213     1.58000
H1661       H  0.78958200  0.24275357  0.93264722    -0.04600
C1662       C  0.87691761  0.37089721  0.99088703     0.94500
O1663       O  0.83401022  0.32768293  0.06990615    -0.80900
C1664       C  0.82784381  0.30555772  0.08810018     0.94600
O1665       O  0.74035675  0.30733694  0.91671556    -0.80900
Mg1666     Mg  0.68877374  0.17715150  0.96808724     1.58200
O1667       O  0.86324175  0.35629832  0.01272113    -0.79200
O1668       O  0.63524945  0.13879172  0.02838179    -0.80900
O1669       O  0.53009087  0.21014646  0.99164955    -0.86500
C1670       C  0.97232330  0.23119648  0.93965557     0.89500
Mg1671     Mg  0.51180737  0.18739107  0.02990686     1.58100
O1672       O  0.53767913  0.30454689  0.97233875    -0.86200
O1673       O  0.57404017  0.25681630  0.97407491    -0.73500
C1674       C  0.94165316  0.28031728  0.08136618     0.94600
O1675       O  0.94757931  0.16793281  0.98576948    -0.73400
O1676       O  0.93955817  0.25037538  0.08374996    -0.80900
Mg1677     Mg  0.99628704  0.18403281  0.95996250     1.58000
C1678       C  0.50932550  0.37682034  0.00350082     0.94500
O1679       O  0.53712774  0.19203660  0.92919328    -0.79100
H1680       H  0.58837591  0.33709437  0.98111725    -0.04500
C1681       C  0.94057223  0.26400560  0.00434906     0.89500
O1682       O  0.53958646  0.24191694  0.04952092    -0.73600
O1683       O  0.99916938  0.23264375  0.94872228    -0.86400
O1684       O  0.51201309  0.36383131  0.98184593    -0.79200
C1685       C  0.52804197  0.32654336  0.90729587     0.94600
C1686       C  0.55676501  0.21430068  0.91206075     0.94500
Mg1687     Mg  0.50395306  0.31041677  0.03569539     1.58000
O1688       O  0.95824290  0.30101359  0.06247266    -0.79100
O1689       O  0.55453262  0.32868742  0.01118111    -0.73400
O1690       O  0.53414297  0.30102812  0.90892639    -0.79200
O1691       O  0.99534297  0.13364004  0.97193390    -0.80900
O1692       O  0.96712245  0.19350748  0.08693292    -0.79200
C1693       C  0.56127633  0.32410108  0.98768419     0.88900
O1694       O  0.50366021  0.26282679  0.04637741    -0.86400
O1695       O  0.97244043  0.28502221  0.00223515    -0.86500
O1696       O  0.92890178  0.23907130  0.02094163    -0.73600
Mg1697     Mg  0.54990471  0.27632798  0.94294073     1.58000
O1698       O  0.51443917  0.33482293  0.92611111    -0.80900
H1699       H  0.58018311  0.22694372  0.00164668    -0.04700
O1700       O  0.96593727  0.19226864  0.02435697    -0.86200
H1701       H  0.91495155  0.15990393  0.01652983    -0.04500
H1702       H  0.55004844  0.28887355  0.06486705    -0.04700
C1703       C  0.94181429  0.17259922  0.00945301     0.88900
C1704       C  0.56205347  0.23068964  0.98950299     0.89500
C1705       C  0.53159529  0.26550791  0.05424425     0.89500
H1706       H  0.92224168  0.26664866  0.99163761    -0.04600
O1707       O  0.96523685  0.25552817  0.94381786    -0.73700
Mg1708     Mg  0.95274708  0.21991255  0.05315456     1.58000
H1709       H  0.95411821  0.20840550  0.92836999    -0.04600
C1710       C  0.99325393  0.11986325  0.99429325     0.94500
O1711       O  0.99721402  0.16889539  0.07082763    -0.80900
C1712       C  0.98020670  0.17328324  0.08921093     0.94600
O1713       O  0.56319220  0.24602772  0.91229715    -0.80900
Mg1714     Mg  0.99336567  0.30936532  0.96450988     1.58200
O1715       O  0.99395277  0.13514257  0.01570811    -0.79200
O1716       O  0.50402016  0.36064072  0.02514575    -0.80900
O1717       O  0.63163062  0.01617720  0.67415170    -0.86500
C1718       C  0.69669958  0.09645320  0.72316494     0.89500
Mg1719     Mg  0.64832358  0.00873013  0.63634404     1.58100
O1720       O  0.63384795  0.10921716  0.68907057    -0.86200
O1721       O  0.59017844  0.02503120  0.68943331    -0.73500
C1722       C  0.73074862  0.16504514  0.57913120     0.94600
O1723       O  0.71567556  0.04966621  0.68116590    -0.73400
O1724       O  0.73354086  0.13766393  0.58116514    -0.80900
Mg1725     Mg  0.66629697  0.02324478  0.70697785     1.58000
C1726       C  0.66563009  0.20779102  0.65631644     0.94500
O1727       O  0.62568608  0.49637262  0.73760986    -0.79100
H1728       H  0.58388181  0.09549848  0.68104656    -0.04500
C1729       C  0.73234699  0.15754898  0.65772852     0.89500
O1730       O  0.62497951  0.03886984  0.61560912    -0.73600
O1731       O  0.66846479  0.07229128  0.71478581    -0.86400
O1732       O  0.66420030  0.19337826  0.67831197    -0.79200
C1733       C  0.64603635  0.14229087  0.75418952     0.94600
C1734       C  0.60857133  0.50468870  0.75359110     0.94500
Mg1735     Mg  0.66795800  0.14394756  0.62537443     1.58000
O1736       O  0.71288673  0.17215480  0.59535133    -0.79100
O1737       O  0.61747031  0.11669322  0.65026347    -0.73400
O1738       O  0.63618502  0.10996519  0.75140468    -0.79200
O1739       O  0.66479019  0.47149867  0.69639886    -0.80900
O1740       O  0.69791675  0.05365233  0.58003367    -0.79200
C1741       C  0.61068223  0.10690268  0.67401772     0.88900
O1742       O  0.66527882  0.09459562  0.61670452    -0.86400
O1743       O  0.70129293  0.15045195  0.65893923    -0.86500
O1744       O  0.74178766  0.14007401  0.64330589    -0.73600
Mg1745     Mg  0.61798312  0.06984051  0.71894799     1.58000
O1746       O  0.66212219  0.16468241  0.73612010    -0.80900
H1747       H  0.58107635  0.98571129  0.66408451    -0.04700
O1748       O  0.69837175  0.05620730  0.64245950    -0.86200
H1749       H  0.74836270  0.06950326  0.64981105    -0.04500
H1750       H  0.61933860  0.07725698  0.59808655    -0.04700
C1751       C  0.72179306  0.05856533  0.65723450     0.88900
C1752       C  0.60022782  0.00763141  0.67564488     0.89500
C1753       C  0.63620954  0.07070294  0.60935096     0.89500
H1754       H  0.75181537  0.17852980  0.66982628    -0.04600
O1755       O  0.70685453  0.12836820  0.71788414    -0.73700
Mg1756     Mg  0.71531635  0.09574585  0.61272396     1.58000
H1757       H  0.71358979  0.09021221  0.73470595    -0.04600
C1758       C  0.66744747  0.45873502  0.67459790     0.94500
O1759       O  0.66541517  0.99969019  0.59641541    -0.80900
C1760       C  0.68331492  0.02028383  0.57790185     0.94600
O1761       O  0.60197956  0.02976282  0.75105875    -0.80900
Mg1762     Mg  0.68262195  0.15743345  0.69650522     1.58200
O1763       O  0.66798365  0.47264558  0.65251677    -0.79200
O1764       O  0.67048657  0.19622075  0.63466865    -0.80900
C1765       C  0.56649704  0.15649982  0.85939393     0.04100
C1766       C  0.60067116  0.16089657  0.85874400     0.04100
C1767       C  0.61306288  0.15374096  0.83541900    -0.16400
C1768       C  0.59093481  0.13928746  0.81355752     0.04100
C1769       C  0.55499131  0.13021290  0.81552358     0.04100
C1770       C  0.54351331  0.13961870  0.83833297    -0.16400
H1771       H  0.51659201  0.13443808  0.83947856     0.06200
H1772       H  0.63925869  0.15699525  0.83471010     0.06200
C1773       C  0.56594724  0.40549563  0.85980320     0.04100
C1774       C  0.59726790  0.43902465  0.86064333     0.04100
C1775       C  0.60978940  0.45828319  0.83708025    -0.16400
C1776       C  0.59185397  0.44525703  0.81320234     0.04100
C1777       C  0.56072114  0.41238672  0.81251346     0.04100
C1778       C  0.54826615  0.39277660  0.83565225    -0.16400
H1779       H  0.52416779  0.36755931  0.83486151     0.06200
H1780       H  0.63358406  0.48376458  0.83724033     0.06200
O1781       O  0.98336150  0.11408881  0.66952013    -0.86500
C1782       C  0.90866981  0.10066927  0.72331409     0.89500
Mg1783     Mg  0.98813294  0.13864892  0.63203974     1.58100
O1784       O  0.89445520  0.02380402  0.69093201    -0.86200
O1785       O  0.97844354  0.06663402  0.68761455    -0.73500
C1786       C  0.82797376  0.05898136  0.58143606     0.94600
O1787       O  0.94977535  0.16378476  0.68052023    -0.73400
O1788       O  0.85453067  0.08984255  0.58283699    -0.80900
Mg1789     Mg  0.98062846  0.14258745  0.70306361     1.58000
C1790       C  0.79175111  0.45593268  0.66265994     0.94500
O1791       O  0.51099920  0.12913457  0.73037248    -0.79100
H1792       H  0.91033879  0.98999132  0.68041361    -0.04500
C1793       C  0.84095001  0.07105125  0.66014522     0.89500
O1794       O  0.95799356  0.08535730  0.61132008    -0.73600
O1795       O  0.93252028  0.09649468  0.71430376    -0.86400
O1796       O  0.80780120  0.46942894  0.68405556    -0.79200
C1797       C  0.86332653  0.00540632  0.75641784     0.94600
C1798       C  0.50598564  0.10839106  0.74935903     0.94500
Mg1799     Mg  0.85461644  0.02138177  0.62722451     1.58000
O1800       O  0.82277091  0.03501941  0.59801416    -0.79100
O1801       O  0.88557564  0.00114621  0.65140926    -0.73400
O1802       O  0.89589549  0.02855239  0.75444074    -0.79200
O1803       O  0.52806343  0.19197091  0.69266117    -0.80900
O1804       O  0.93787003  0.14243731  0.57932478    -0.79200
C1805       C  0.89715338  0.00426241  0.67474470     0.88900
O1806       O  0.90224248  0.06849382  0.61628036    -0.86400
O1807       O  0.85046100  0.04892993  0.66102418    -0.86500
O1808       O  0.85590391  0.09750225  0.64510644    -0.73600
Mg1809     Mg  0.93605731  0.05008850  0.72000278     1.58000
O1810       O  0.84169170  0.99827118  0.73760332    -0.80900
H1811       H  0.01298435  0.09341064  0.65827528    -0.04700
O1812       O  0.94033326  0.14022180  0.64133292    -0.86200
H1813       H  0.92557371  0.17509495  0.65123618    -0.04500
H1814       H  0.91848729  0.04093479  0.59501824    -0.04700
C1815       C  0.93834786  0.16053109  0.65717179     0.88900
C1816       C  0.99264572  0.09177461  0.67123178     0.89500
C1817       C  0.92570048  0.06411156  0.60674673     0.89500
H1818       H  0.82008324  0.06834588  0.67301271    -0.04600
O1819       O  0.87645475  0.07853415  0.71905238    -0.73700
Mg1820     Mg  0.89840809  0.11603962  0.61312914     1.58000
H1821       H  0.91538474  0.12409501  0.73457027    -0.04600
C1822       C  0.53913048  0.20694441  0.67060923     0.94500
O1823       O  0.99353021  0.16480056  0.59268352    -0.80900
C1824       C  0.97094131  0.16183098  0.57571035     0.94600
O1825       O  0.98020628  0.07930315  0.75064536    -0.80900
Mg1826     Mg  0.84627497  0.02458437  0.69862006     1.58200
O1827       O  0.52398121  0.19269729  0.64910043    -0.79200
O1828       O  0.80235447  0.47132130  0.64072864    -0.80900
O1829       O  0.85189899  0.30572007  0.66449686    -0.86500
C1830       C  0.92856884  0.36727943  0.61132322     0.89500
Mg1831     Mg  0.84609406  0.32597905  0.70121796     1.58100
O1832       O  0.94024439  0.30214652  0.64131942    -0.86200
O1833       O  0.85730597  0.26369879  0.64562571    -0.73500
C1834       C  0.50260687  0.39768304  0.75208831     0.94600
O1835       O  0.88520468  0.38979450  0.65307691    -0.73400
O1836       O  0.97810199  0.40325718  0.74905392    -0.80900
Mg1837     Mg  0.85571415  0.33727476  0.63108191     1.58000
C1838       C  0.53844184  0.33016203  0.67392308     0.94500
O1839       O  0.82170252  0.28733615  0.60853999    -0.79100
H1840       H  0.92351754  0.25178587  0.64979590    -0.04500
C1841       C  0.99390415  0.40113601  0.67231110     0.89500
O1842       O  0.87505182  0.30179129  0.72275935    -0.73600
O1843       O  0.90467761  0.34005703  0.62112407    -0.86400
O1844       O  0.52346730  0.32768576  0.65191566    -0.79200
C1845       C  0.96855227  0.31422322  0.57540380     0.94600
C1846       C  0.82780952  0.27787734  0.58669005     0.94500
Mg1847     Mg  0.97794114  0.33578190  0.70496485     1.58000
O1848       O  0.50836469  0.37859273  0.73620785    -0.79100
O1849       O  0.94728322  0.28559403  0.68012787    -0.73400
O1850       O  0.93847147  0.31149657  0.57853366    -0.79200
O1851       O  0.80458117  0.33419183  0.64061382    -0.80900
O1852       O  0.89721374  0.37166918  0.75437439    -0.79200
C1853       C  0.93669391  0.27875610  0.65652839     0.88900
O1854       O  0.93062713  0.33682779  0.71444735    -0.86400
O1855       O  0.98580109  0.36982515  0.67146982    -0.86500
O1856       O  0.97780863  0.41194083  0.68703812    -0.73600
Mg1857     Mg  0.89938122  0.29022829  0.61290549     1.58000
O1858       O  0.99134236  0.32477965  0.59381967    -0.80900
H1859       H  0.82344185  0.25544618  0.67569476    -0.04700
O1860       O  0.89399871  0.37364253  0.69151634    -0.86200
H1861       H  0.90821048  0.42362570  0.68353103    -0.04500
H1862       H  0.91412810  0.29456799  0.73740358    -0.04700
C1863       C  0.89603207  0.39677203  0.67661702     0.88900
C1864       C  0.84325970  0.27431007  0.66258098     0.89500
C1865       C  0.90718800  0.31059396  0.72549448     0.89500
H1866       H  0.01447531  0.41964986  0.65948125    -0.04600
O1867       O  0.96067220  0.37540740  0.61368340    -0.73700
Mg1868     Mg  0.93552224  0.38801227  0.71928857     1.58000
H1869       H  0.92207325  0.38457600  0.60065447    -0.04600
C1870       C  0.79243528  0.33837256  0.66197568     0.94500
O1871       O  0.84241487  0.35012487  0.73939190    -0.80900
C1872       C  0.86543299  0.36446674  0.75738669     0.94600
O1873       O  0.85697601  0.27921224  0.58215863    -0.80900
Mg1874     Mg  0.98921802  0.34908440  0.63351321     1.58200
O1875       O  0.80802778  0.34246667  0.68385807    -0.79200
O1876       O  0.52684004  0.33486894  0.69554197    -0.80900
C1877       C  0.80841392  0.39261026  0.85273752     0.04100
C1878       C  0.79826630  0.41864158  0.85081908     0.04100
C1879       C  0.80424187  0.43736269  0.82730017    -0.16400
C1880       C  0.81841344  0.42968730  0.80529497     0.04100
C1881       C  0.82529958  0.40145007  0.80634850     0.04100
C1882       C  0.82146736  0.38420527  0.83041093    -0.16400
H1883       H  0.82703742  0.36280307  0.83162000     0.06200
H1884       H  0.79787202  0.45825116  0.82608971     0.06200
C1885       C  0.49337844  0.23181073  0.47565985     0.04100
C1886       C  0.49736850  0.26589483  0.47578906     0.04100
C1887       C  0.49624893  0.28092926  0.49993430    -0.16400
C1888       C  0.98729135  0.26274615  0.52247018     0.04100
C1889       C  0.98269071  0.22835469  0.52210485     0.04100
C1890       C  0.48710615  0.21333860  0.49935048    -0.16400
H1891       H  0.48250493  0.18668339  0.49883230     0.06200
H1892       H  0.50014230  0.30730050  0.50010571     0.06200
C1893       C  0.72979727  0.24541285  0.48045752     0.04100
C1894       C  0.76214051  0.27756213  0.48112178     0.04100
C1895       C  0.78646273  0.28315361  0.50113208    -0.16400
C1896       C  0.77854009  0.25841576  0.52124272     0.04100
C1897       C  0.74458309  0.22810330  0.52209479     0.04100
C1898       C  0.72114545  0.22166372  0.50129679    -0.16400
H1899       H  0.69571191  0.19770593  0.50130812     0.06200
H1900       H  0.81185625  0.30714290  0.50110512     0.06200
C1901       C  0.76009237  0.48351557  0.47943251     0.04100
C1902       C  0.72422517  0.47476649  0.48006837     0.04100
C1903       C  0.71252185  0.48857475  0.50008523    -0.16400
C1904       C  0.73288682  0.00443584  0.52220354     0.04100
C1905       C  0.76620079  0.00674733  0.52422999     0.04100
C1906       C  0.78345854  0.50710580  0.49832742    -0.16400
H1907       H  0.81073183  0.51333639  0.49843125     0.06200
H1908       H  0.68519386  0.48222805  0.50022216     0.06200
C1909       C  0.50376774  0.46746806  0.00159702     0.04100
C1910       C  0.53409166  0.50085563  0.00459326     0.04100
C1911       C  0.53013196  0.03036473  0.00136929     0.04100
C1912       C  0.49716888  0.02803502  0.99705015     0.04100
C1913       C  0.96654332  0.49481168  0.99464535     0.04100
C1914       C  0.96931785  0.46406655  0.99532740     0.04100
C1915       C  0.86416564  0.16303502  0.32863246     0.04100
C1916       C  0.86807924  0.19686430  0.32985468     0.04100
C1917       C  0.83833613  0.20088659  0.33343891     0.04100
C1918       C  0.80443639  0.17078451  0.33565905     0.04100
C1919       C  0.80031453  0.13683570  0.33327267     0.04100
C1920       C  0.83024928  0.13285735  0.33002343     0.04100
C1921       C  0.69637110  0.33198787  0.66306271     0.04100
C1922       C  0.69696625  0.36418874  0.66588614     0.04100
C1923       C  0.66521626  0.36457513  0.66945456     0.04100
C1924       C  0.63279304  0.33249837  0.66987122     0.04100
C1925       C  0.63224382  0.30026450  0.66676305     0.04100
C1926       C  0.66402656  0.29996264  0.66290112     0.04100
C1927       C  0.57112959  0.33001285  0.67395137    -0.11400
C1928       C  0.59963887  0.33212218  0.67273895    -0.13000
C1929       C  0.75872989  0.33612276  0.66156622    -0.11400
C1930       C  0.72962038  0.33251184  0.66154486    -0.13000
C1931       C  0.85582988  0.37474242  0.78220098    -0.14600
C1932       C  0.83460941  0.38874922  0.78219434    -0.29800
H1933       H  0.86928012  0.37447422  0.80004411     0.14400
H1934       H  0.82435823  0.39178893  0.76354796     0.15000
C1935       C  0.80624728  0.26603322  0.54105356    -0.14600
C1936       C  0.80000286  0.26606103  0.56676913    -0.29800
H1937       H  0.83296945  0.27521202  0.53422826     0.14400
H1938       H  0.77414161  0.26065126  0.57332117     0.15000
C1939       C  0.97563584  0.30343920  0.54969561    -0.14600
C1940       C  0.98693003  0.27999963  0.54780520    -0.29800
H1941       H  0.96523472  0.30973323  0.53248010     0.14400
H1942       H  0.99357658  0.27125129  0.56577407     0.15000
C1943       C  0.75912909  0.42313732  0.66367238    -0.11400
C1944       C  0.73060790  0.39682536  0.66485886    -0.13000
C1945       C  0.57103322  0.24039702  0.66959717    -0.11400
C1946       C  0.59887473  0.26745129  0.66814363    -0.13000
C1947       C  0.82649275  0.45196246  0.78156289    -0.14600
C1948       C  0.85164084  0.48617223  0.78182415    -0.29800
H1949       H  0.81384061  0.43944035  0.76317782     0.14400
H1950       H  0.86520576  0.99671861  0.79903609     0.15000
C1951       C  0.78663676  0.01693831  0.54915460    -0.14600
C1952       C  0.80382278  0.04997099  0.55868696    -0.29800
H1953       H  0.79022932  0.99675922  0.55862103     0.14400
H1954       H  0.80333273  0.07103464  0.54786110     0.15000
C1955       C  0.97164975  0.20583773  0.54599013    -0.14600
C1956       C  0.98331510  0.18341762  0.55177642    -0.29800
H1957       H  0.95345688  0.20793400  0.55941553     0.14400
H1958       H  0.00400962  0.18318406  0.54015874     0.15000
C1959       C  0.54110113  0.39769412  0.78763789    -0.14600
C1960       C  0.52480391  0.41283658  0.77552591    -0.29800
H1961       H  0.53816991  0.37313077  0.78028855     0.14400
H1962       H  0.52445005  0.43487614  0.78490378     0.15000
C1963       C  0.52827350  0.11136445  0.79453580    -0.14600
C1964       C  0.53440003  0.12077231  0.76916093    -0.29800
H1965       H  0.50152591  0.09270441  0.80061943     0.14400
H1966       H  0.06289002  0.14209145  0.76256558     0.15000
C1967       C  0.66342293  0.26683112  0.65897309    -0.11400
C1968       C  0.66336522  0.23939779  0.65656223    -0.13000
C1969       C  0.66787125  0.42619063  0.67444715    -0.11400
C1970       C  0.66625814  0.39797763  0.67265198    -0.13000
C1971       C  0.59462280  0.48494158  0.77817611    -0.14600
C1972       C  0.60701951  0.46523048  0.78870388    -0.29800
H1973       H  0.57222534  0.98612278  0.78966345     0.14400
H1974       H  0.62803108  0.46304760  0.77914337     0.15000
C1975       C  0.60483141  0.13002062  0.79026527    -0.14600
C1976       C  0.63561308  0.15279960  0.77859506    -0.29800
H1977       H  0.58810953  0.10431927  0.78150874     0.14400
H1978       H  0.65103354  0.17966325  0.78566562     0.15000
C1979       C  0.68973181  0.00488434  0.55409868    -0.14600
C1980       C  0.72142319  0.02134243  0.54227027    -0.29800
H1981       H  0.67085033  0.97788627  0.54885832     0.14400
H1982       H  0.74102807  0.04706495  0.54945247     0.15000
C1983       C  0.74703460  0.18840074  0.55633908    -0.14600
C1984       C  0.73078813  0.20419732  0.54505899    -0.29800
H1985       H  0.77096996  0.19099255  0.54781719     0.14400
H1986       H  0.70503875  0.19829632  0.55231701     0.15000
C1987       C  0.99304379  0.08706684  0.99581688    -0.11400
C1988       C  0.99596295  0.06123991  0.99808387    -0.13000
C1989       C  0.50706814  0.43599500  0.00240046    -0.11400
C1990       C  0.50983019  0.40990824  0.00311397    -0.13000
C1991       C  0.53868475  0.34792003  0.88306873    -0.14600
C1992       C  0.55149884  0.38301091  0.88366819    -0.29800
H1993       H  0.53991077  0.33543808  0.86496332     0.14400
H1994       H  0.55301002  0.39556342  0.90238609     0.15000
C1995       C  0.55377491  0.16865666  0.88200578    -0.14600
C1996       C  0.57125171  0.20223370  0.89073252    -0.29800
H1997       H  0.52809651  0.15036888  0.89016442     0.14400
H1998       H  0.59517984  0.22143467  0.88085652     0.15000
C1999       C  0.56142495  0.06474977  0.00431538    -0.11400
C2000       C  0.58717530  0.09365157  0.00608782    -0.13000
C2001       C  0.93798967  0.42980048  0.99294108    -0.11400
C2002       C  0.91101686  0.40196139  0.99136847    -0.13000
C2003       C  0.77511111  0.35625281  0.89078642    -0.14600
C2004       C  0.80527487  0.37279190  0.87718018    -0.29800
H2005       H  0.75189640  0.35646774  0.88345522     0.14400
H2006       H  0.82731174  0.36930962  0.88276753     0.15000
C2007       C  0.62107317  0.16818580  0.88339980    -0.14600
C2008       C  0.65630867  0.18520904  0.88432772    -0.29800
H2009       H  0.60645209  0.16046899  0.90177318     0.14400
H2010       H  0.67187609  0.19657156  0.86672169     0.15000
C2011       C  0.90801998  0.99907207  0.99711053    -0.11400
C2012       C  0.93376024  0.99578229  0.99715520    -0.13000
C2013       C  0.56796440  0.50295010  0.00821789    -0.11400
C2014       C  0.59485539  0.50179626  0.00995505    -0.13000
C2015       C  0.65327441  0.47117331  0.88644018    -0.14600
C2016       C  0.61765639  0.45379300  0.88562867    -0.29800
H2017       H  0.66795330  0.47393225  0.86854664     0.14400
H2018       H  0.60336020  0.44819028  0.90404236     0.15000
C2019       C  0.78137095  0.42741324  0.87250809    -0.14600
C2020       C  0.79348524  0.43221407  0.89716739    -0.29800
H2021       H  0.76021577  0.43260206  0.86762383     0.14400
H2022       H  0.81687111  0.43049546  0.90154178     0.15000
C2023       C  0.92246221  0.28334854  0.12665297    -0.14600
C2024       C  0.92596994  0.29308745  0.10128532    -0.29800
H2025       H  0.93073402  0.26480930  0.13267317     0.14400
H2026       H  0.92153028  0.31444009  0.09565561     0.15000
C2027       C  0.86117012  0.29685709  0.12293424    -0.14600
C2028       C  0.84938837  0.31714533  0.11215153    -0.29800
H2029       H  0.85441774  0.27186700  0.11379847     0.14400
H2030       H  0.85869583  0.34361991  0.11943814     0.15000
C2031       C  0.82628243  0.09792548  0.32857477    -0.11400
C2032       C  0.82467152  0.06960302  0.32784039    -0.13000
C2033       C  0.84285948  0.23601596  0.33447790    -0.11400
C2034       C  0.84635509  0.26512035  0.33486631    -0.13000
C2035       C  0.77266516  0.46686052  0.45984218    -0.14600
C2036       C  0.80492188  0.48394525  0.44884398    -0.29800
H2037       H  0.75361631  0.44114446  0.45218198     0.14400
H2038       H  0.82306054  0.51105296  0.45425380     0.15000
C2039       C  0.77121483  0.29964332  0.43565001    -0.14600
C2040       C  0.77171667  0.30582895  0.46144898    -0.29800
H2041       H  0.76506820  0.27365985  0.42896437     0.14400
H2042       H  0.78179158  0.33256622  0.46843616     0.15000
C2043       C  0.86568445  0.35708218  0.21488643    -0.14600
C2044       C  0.88417698  0.34020365  0.21487476    -0.29800
H2045       H  0.86172879  0.36788304  0.19687009     0.14400
H2046       H  0.89066259  0.33291056  0.23359887     0.15000
C2047       C  0.73646943  0.07986937  0.33434648    -0.11400
C2048       C  0.76519008  0.10604904  0.33397588    -0.13000
C2049       C  0.90311946  0.22755822  0.32774802    -0.11400
C2050       C  0.93226616  0.25295250  0.32635180    -0.13000
C2051       C  0.52618928  0.32076272  0.44906034    -0.14600
C2052       C  0.50302709  0.28608280  0.45092415    -0.29800
H2053       H  0.54199388  0.33487863  0.46602790     0.14400
H2054       H  0.48970786  0.27180447  0.43324359     0.15000
C2055       C  0.69832451  0.45341022  0.45927989    -0.14600
C2056       C  0.70491534  0.46198710  0.43372264    -0.29800
H2057       H  0.67158421  0.43465027  0.46531625     0.14400
H2058       H  0.73052001  0.48368110  0.42807245     0.15000
C2059       C  0.96702492  0.37203822  0.22475004    -0.14600
C2060       C  0.95150810  0.33900463  0.21494876    -0.29800
H2061       H  0.96227057  0.39155336  0.21543626     0.14400
H2062       H  0.95912189  0.32061876  0.22255613     0.15000
C2063       C  0.94150491  0.13362469  0.12361373    -0.14600
C2064       C  0.97401289  0.15220759  0.11319588    -0.29800
H2065       H  0.92049886  0.13664828  0.11498654     0.14400
H2066       H  0.99487448  0.14735363  0.11954108     0.15000
C2067       C  0.85338879  0.03389046  0.11775930    -0.14600
C2068       C  0.87110566  0.06734780  0.12666711    -0.29800
H2069       H  0.85926503  0.01445605  0.12579890     0.14400
H2070       H  0.86760470  0.08726132  0.11673325     0.15000
C2071       C  0.90028224  0.04425628  0.21533582    -0.14600
C2072       C  0.91565081  0.02818703  0.22728937    -0.29800
H2073       H  0.87516932  0.04011181  0.22270544     0.14400
H2074       H  0.93863225  0.02894732  0.21847490     0.15000
C2075       C  0.72603502  0.14883031  0.13125634    -0.14600
C2076       C  0.70817030  0.14214427  0.10862033    -0.29800
H2077       H  0.75140555  0.17253274  0.13375775     0.14400
H2078       H  0.68175033  0.11954351  0.10752525     0.15000
C2079       C  0.72636373  0.08196852  0.13330995    -0.14600
C2080       C  0.71062028  0.07213494  0.10976868    -0.29800
H2081       H  0.75012552  0.08087621  0.13751788     0.14400
H2082       H  0.68516796  0.07030117  0.10702897     0.15000
C2083       C  0.66252907  0.05341229  0.21862708    -0.14600
C2084       C  0.64291366  0.01809206  0.21654958    -0.29800
H2085       H  0.66833119  0.06536759  0.23804056     0.14400
H2086       H  0.63615659  0.50473721  0.19728275     0.15000
C2087       C  0.74668572  0.17536256  0.34304577    -0.11400
C2088       C  0.77353820  0.17428996  0.34021138    -0.13000
C2089       C  0.92466256  0.16314370  0.32618255    -0.11400
C2090       C  0.89580387  0.16032691  0.32666758    -0.13000
C2091       C  0.49741753  0.21562349  0.45120447    -0.14600
C2092       C  0.51783762  0.20074253  0.45066581    -0.29800
H2093       H  0.48686298  0.21915056  0.43290051     0.14400
H2094       H  0.53150123  0.20036447  0.46838005     0.15000
C2095       C  0.69353662  0.25252987  0.44562585    -0.14600
C2096       C  0.70594959  0.23352224  0.45743152    -0.29800
H2097       H  0.69828311  0.27729888  0.45398962     0.14400
H2098       H  0.69761694  0.20716866  0.45023230     0.15000
C2099       C  0.97480277  0.10294409  0.23141598    -0.14600
C2100       C  0.97849104  0.09900086  0.20574734    -0.29800
H2101       H  0.45305662  0.09939051  0.23534839     0.14400
H2102       H  0.00380526  0.10398929  0.19822377     0.15000
C2103       C  0.65764753  0.11860952  0.21511104    -0.14600
C2104       C  0.66789825  0.15170044  0.22308466    -0.29800
H2105       H  0.63560296  0.09696008  0.22514365     0.14400
H2106       H  0.69203392  0.17358947  0.21546108     0.15000
O2107       O  0.51943407  0.63133829  0.33079370    -0.86500
C2108       C  0.59455866  0.69749901  0.27891671     0.89500
Mg2109     Mg  0.50879755  0.64771746  0.36757998     1.58100
O2110       O  0.61115884  0.63509096  0.30930834    -0.86200
O2111       O  0.52743626  0.59158289  0.31092238    -0.73500
C2112       C  0.66485010  0.73271236  0.42147584     0.94600
O2113       O  0.54606227  0.71376333  0.32010564    -0.73400
O2114       O  0.63771598  0.73602859  0.41939442    -0.80900
Mg2115     Mg  0.52096636  0.66166791  0.29736672     1.58000
C2116       C  0.71027748  0.67186876  0.34409258     0.94500
O2117       O  0.99553241  0.62158689  0.26895980    -0.79100
H2118       H  0.59589652  0.58550936  0.31933208    -0.04500
C2119       C  0.65645250  0.73420812  0.34325415     0.89500
O2120       O  0.54005680  0.62714430  0.38992814    -0.73600
O2121       O  0.57205286  0.66865828  0.28748682    -0.86400
O2122       O  0.69638779  0.67105968  0.32194806    -0.79200
C2123       C  0.64756090  0.65328992  0.24562766     0.94600
C2124       C  0.00383324  0.60980913  0.24907490     0.94500
Mg2125     Mg  0.64386322  0.67031922  0.37507924     1.58000
O2126       O  0.67171545  0.71467538  0.40528989    -0.79100
O2127       O  0.61651401  0.62033821  0.34945159    -0.73400
O2128       O  0.61402097  0.63937068  0.24668743    -0.79200
O2129       O  0.97098395  0.66312240  0.30391153    -0.80900
O2130       O  0.55374351  0.70083347  0.42099671    -0.79200
C2131       C  0.60767724  0.61263391  0.32552289     0.88900
O2132       O  0.59473722  0.66764018  0.38441298    -0.86400
O2133       O  0.64903158  0.70317330  0.34195660    -0.86500
O2134       O  0.63903054  0.74378061  0.35757185    -0.73600
Mg2135     Mg  0.57103269  0.62013856  0.27932560     1.58000
O2136       O  0.66753934  0.67017957  0.26475382    -0.80900
H2137       H  0.49224326  0.58043433  0.34056535    -0.04700
O2138       O  0.55445941  0.69901787  0.35937839    -0.86200
H2139       H  0.56505570  0.74781820  0.35081098    -0.04500
H2140       H  0.58111753  0.62554418  0.40696712    -0.04700
C2141       C  0.55522102  0.72118265  0.34399057     0.88900
C2142       C  0.51215171  0.60042398  0.32812510     0.89500
C2143       C  0.57256362  0.63986521  0.39457399     0.89500
H2144       H  0.67753275  0.75350616  0.33116533    -0.04600
O2145       O  0.62703326  0.70947691  0.28355476    -0.73700
Mg2146     Mg  0.59523443  0.71735314  0.38826657     1.58000
H2147       H  0.58639122  0.71317590  0.26778499    -0.04600
C2148       C  0.95733475  0.66585417  0.32515181     0.94500
O2149       O  0.49891981  0.66603361  0.40641258    -0.80900
C2150       C  0.52038921  0.68575052  0.42390708     0.94600
O2151       O  0.52919342  0.60884998  0.24668908    -0.80900
Mg2152     Mg  0.65784276  0.68675284  0.30433687     1.58200
O2153       O  0.97241972  0.67017442  0.34728727    -0.79200
O2154       O  0.69687821  0.67406099  0.36572070    -0.80900
C2155       C  0.67752992  0.57650909  0.19506618     0.04100
C2156       C  0.67519686  0.60765493  0.19392912     0.04100
C2157       C  0.69097414  0.63090514  0.17273191    -0.16400
C2158       C  0.70907475  0.62403985  0.15298493     0.04100
C2159       C  0.71145179  0.59315511  0.15408661     0.04100
C2160       C  0.69591295  0.56989352  0.17522243    -0.16400
H2161       H  0.69824371  0.54646180  0.17626233     0.06200
H2162       H  0.68859139  0.65425241  0.17113800     0.06200
C2163       C  0.92450534  0.55385025  0.18374054     0.04100
C2164       C  0.95785908  0.58443317  0.18211896     0.04100
C2165       C  0.96435529  0.60854710  0.16188011    -0.16400
C2166       C  0.93804277  0.60311017  0.14340262     0.04100
C2167       C  0.90461493  0.57182493  0.14488743     0.04100
C2168       C  0.89844098  0.54783296  0.16524515    -0.16400
H2169       H  0.87281978  0.52436617  0.16708650     0.06200
H2170       H  0.98962960  0.63260305  0.16137425     0.06200
O2171       O  0.65136816  0.95274308  0.33391073    -0.86500
C2172       C  0.57517980  0.93368432  0.38812088     0.94900
Mg2173     Mg  0.65290058  0.97700494  0.29681154     1.58100
O2174       O  0.56538471  0.85827447  0.35619412    -0.86200
O2175       O  0.64884234  0.90570780  0.35090042    -0.73500
C2176       C  0.99376832  0.88388952  0.24335768     0.94600
O2177       O  0.61207653  0.99718373  0.34518671    -0.73400
O2178       O  0.51612811  0.91563169  0.24855194    -0.80900
Mg2179     Mg  0.64620737  0.97952408  0.36774787     1.58000
C2180       C  0.96256783  0.78480980  0.32354050     0.94500
O2181       O  0.68317734  0.96893757  0.39345996    -0.79100
H2182       H  0.58384739  0.82637658  0.34620974    -0.04500
C2183       C  0.50579726  0.89878603  0.32607704     0.89500
O2184       O  0.62554425  0.92319638  0.27589766    -0.73600
O2185       O  0.60006826  0.93152902  0.37875053    -0.86400
O2186       O  0.97777442  0.79864462  0.34519089    -0.79200
C2187       C  0.53828291  0.84180606  0.42333928     0.94600
C2188       C  0.67884256  0.94818195  0.41231054     0.94500
Mg2189     Mg  0.52315807  0.85127298  0.29312654     1.58000
O2190       O  0.99036681  0.86051358  0.25981519    -0.79100
O2191       O  0.55711958  0.83465855  0.31710069    -0.73400
O2192       O  0.56981989  0.86620948  0.41941199    -0.79200
O2193       O  0.69125602  0.52975739  0.35800619    -0.80900
O2194       O  0.59966624  0.97108457  0.24247537    -0.79200
C2195       C  0.56917280  0.83907259  0.34034845     0.88900
O2196       O  0.56883434  0.90040748  0.28181604    -0.86400
O2197       O  0.51664481  0.87766044  0.32699367    -0.86500
O2198       O  0.51934056  0.92505431  0.31071357    -0.73600
Mg2199     Mg  0.60748210  0.88733844  0.38414873     1.58000
O2200       O  0.51492352  0.83079567  0.40530602    -0.80900
H2201       H  0.68220702  0.93405121  0.32139782    -0.04700
O2202       O  0.60304135  0.97321697  0.30619442    -0.86200
H2203       H  0.58485603  0.00530206  0.31635897    -0.04500
H2204       H  0.58893744  0.87636652  0.26041822    -0.04700
C2205       C  0.59956639  0.99258225  0.32207678     0.88900
C2206       C  0.66188422  0.93131830  0.33486140     0.89500
C2207       C  0.59394020  0.89902642  0.27205069     0.89500
H2208       H  0.48490547  0.89537612  0.33921463    -0.04600
O2209       O  0.54343070  0.90964789  0.38459365    -0.73700
Mg2210     Mg  0.56106619  0.94532562  0.27791702     1.58000
H2211       H  0.58051210  0.95693419  0.39909269    -0.04600
C2212       C  0.70178549  0.54608561  0.33644616     0.94500
O2213       O  0.65396450  0.00346257  0.25870160    -0.80900
C2214       C  0.63155616  0.99603769  0.24043299     0.94600
O2215       O  0.65143739  0.91795919  0.41406758    -0.80900
Mg2216     Mg  0.51561235  0.85492490  0.36512310     1.58200
O2217       O  0.68623493  0.53309335  0.31475896    -0.79200
O2218       O  0.97382896  0.79998280  0.30149443    -0.80900
O2219       O  0.80753636  0.85190474  0.33693466    -0.86500
C2220       C  0.86577095  0.92917223  0.39081388     0.89500
Mg2221     Mg  0.82824262  0.84768873  0.29996858     1.58100
O2222       O  0.79961746  0.93872821  0.35902919    -0.86200
O2223       O  0.76376300  0.85509123  0.35484405    -0.73500
C2224       C  0.88435709  0.50360022  0.24718010     0.94600
O2225       O  0.89142873  0.88888016  0.34889208    -0.73400
O2226       O  0.90521397  0.98010153  0.25314347    -0.80900
Mg2227     Mg  0.83906859  0.85715742  0.37069175     1.58000
C2228       C  0.82196197  0.53543082  0.32914289     0.94500
O2229       O  0.78977170  0.82173512  0.39356701    -0.79100
H2230       H  0.74924917  0.92117090  0.34942950    -0.04500
C2231       C  0.89982575  0.99491661  0.32894853     0.89500
O2232       O  0.80232339  0.87556504  0.27937802    -0.73600
O2233       O  0.83852189  0.90458961  0.38154517    -0.86400
O2234       O  0.82326128  0.52166882  0.35082099    -0.79200
C2235       C  0.81002022  0.96941734  0.42480412     0.94600
C2236       C  0.77762060  0.82699051  0.41455114     0.94500
Mg2237     Mg  0.83467789  0.97796941  0.29553422     1.58000
O2238       O  0.86712511  0.50769565  0.26558630    -0.79100
O2239       O  0.78401674  0.94617266  0.31986381    -0.73400
O2240       O  0.79996783  0.93685036  0.42183019    -0.79200
O2241       O  0.83945106  0.80742078  0.36010756    -0.80900
O2242       O  0.87227815  0.90036176  0.24771915    -0.79200
C2243       C  0.77653170  0.93497681  0.34329213     0.88900
O2244       O  0.83701530  0.93159286  0.28647882    -0.86400
O2245       O  0.86807465  0.98550422  0.32921018    -0.86500
O2246       O  0.91199990  0.97952103  0.31486258    -0.73600
Mg2247     Mg  0.78676062  0.89748573  0.38750598     1.58000
O2248       O  0.82585258  0.99190757  0.40673983    -0.80900
H2249       H  0.75757795  0.82108925  0.32545461    -0.04700
O2250       O  0.87487558  0.89624319  0.31008050    -0.86200
H2251       H  0.92535952  0.91266873  0.31866552    -0.04500
H2252       H  0.79339527  0.91336751  0.26463344    -0.04700
C2253       C  0.89829181  0.89945001  0.32530873     0.88900
C2254       C  0.77568614  0.84167572  0.33848220     0.89500
C2255       C  0.81046041  0.90737741  0.27617977     0.89500
H2256       H  0.91748514  0.01588615  0.34191520    -0.04600
O2257       O  0.87399902  0.96094083  0.38695805    -0.73700
Mg2258     Mg  0.88891758  0.93755780  0.28259802     1.58000
H2259       H  0.88340466  0.92353661  0.40194968    -0.04600
C2260       C  0.84466492  0.79626462  0.33854102     0.94500
O2261       O  0.85136970  0.84503458  0.26070011    -0.80900
C2262       C  0.86402791  0.86876762  0.24312979     0.94600
O2263       O  0.77618026  0.85496102  0.41827898    -0.80900
Mg2264     Mg  0.84719429  0.98844139  0.36680323     1.58200
O2265       O  0.84757657  0.81167719  0.31677406    -0.79200
O2266       O  0.82412703  0.52322367  0.30705417    -0.80900
C2267       C  0.93056575  0.83482753  0.18604987     0.04100
C2268       C  0.89975587  0.83745308  0.18737922     0.04100
C2269       C  0.88175401  0.83592880  0.16414466    -0.16400
C2270       C  0.89279821  0.83005073  0.13968380     0.04100
C2271       C  0.92149322  0.82380518  0.13875916     0.04100
C2272       C  0.94023555  0.82646525  0.16193328    -0.16400
H2273       H  0.96323254  0.82327656  0.16098349     0.06200
H2274       H  0.85889032  0.83923731  0.16517240     0.06200
O2275       O  0.72030427  0.53573389  0.00707100    -0.86500
C2276       C  0.73342780  0.97152013  0.06138967     0.89500
Mg2277     Mg  0.69341535  0.51616666  0.96959868     1.58100
O2278       O  0.81282454  0.53695517  0.02813228    -0.86200
O2279       O  0.76870653  0.57715990  0.02522130    -0.73500
C2280       C  0.78150916  0.94529548  0.91867358     0.94600
O2281       O  0.67022396  0.94859958  0.01624791    -0.73400
O2282       O  0.75207873  0.94421005  0.91631361    -0.80900
Mg2283     Mg  0.68970818  0.99903741  0.04092951     1.58000
C2284       C  0.87569078  0.49932570  0.99544171     0.94500
O2285       O  0.70865426  0.55105831  0.06781163    -0.79100
H2286       H  0.84772175  0.58685230  0.01928980    -0.04500
C2287       C  0.76286351  0.93747365  0.99563149     0.89500
O2288       O  0.74670710  0.54116522  0.94791890    -0.73600
O2289       O  0.73728823  0.99896700  0.05177754    -0.86400
O2290       O  0.86352326  0.50101134  0.01773709    -0.79200
C2291       C  0.83344456  0.52320350  0.09237175     0.94600
C2292       C  0.72969659  0.56548178  0.08698532     0.94500
Mg2293     Mg  0.81217617  0.50197612  0.96475521     1.58000
O2294       O  0.79979223  0.95629489  0.93942669    -0.79100
O2295       O  0.83467998  0.55301421  0.98862376    -0.73400
O2296       O  0.81396222  0.53717676  0.09031736    -0.79200
O2297       O  0.64009754  0.00060857  0.03052279    -0.80900
O2298       O  0.69903482  0.97275030  0.91351372    -0.79200
C2299       C  0.83267150  0.55993593  0.01256735     0.88900
O2300       O  0.76588061  0.50465734  0.95468686    -0.86400
O2301       O  0.78457711  0.96899063  0.99860851    -0.86500
O2302       O  0.73812727  0.92716267  0.97883386    -0.73600
Mg2303     Mg  0.78743857  0.55235041  0.05707922     1.58000
O2304       O  0.83593910  0.50468793  0.07420840    -0.80900
H2305       H  0.74188764  0.58619531  0.99654889    -0.04700
O2306       O  0.69236703  0.96502708  0.97684721    -0.86200
H2307       H  0.65986159  0.91461167  0.98597740    -0.04500
H2308       H  0.79292196  0.54818192  0.93315028    -0.04700
C2309       C  0.67339997  0.94167766  0.99249163     0.88900
C2310       C  0.74326651  0.56701675  0.00904301     0.89500
C2311       C  0.76963196  0.53187156  0.94466631     0.89500
H2312       H  0.76472242  0.91825907  0.00776437    -0.04600
O2313       O  0.75563981  0.96159143  0.05724708    -0.73700
Mg2314     Mg  0.72087792  0.95384208  0.94754705     1.58000
H2315       H  0.71015920  0.95513659  0.07291164    -0.04600
C2316       C  0.62395187  0.99652992  0.00895187     0.94500
O2317       O  0.66331938  0.99007150  0.93051501    -0.80900
C2318       C  0.67290645  0.97789275  0.91148952     0.94600
O2319       O  0.75924127  0.56649164  0.08852932    -0.80900
Mg2320     Mg  0.80911900  0.98652412  0.03651935     1.58200
O2321       O  0.63608340  0.99326517  0.98709458    -0.79200
O2322       O  0.86030618  0.49820356  0.97412168    -0.80900
O2323       O  0.78269049  0.82163928  0.99301715    -0.86500
C2324       C  0.76663646  0.74029517  0.94495812     0.89500
Mg2325     Mg  0.80604738  0.82573656  0.03093294     1.58100
O2326       O  0.68922910  0.72779117  0.97541095    -0.86200
O2327       O  0.73145301  0.81110858  0.97788585    -0.73500
C2328       C  0.71611336  0.67062348  0.08790069     0.94600
O2329       O  0.82923381  0.78332347  0.98719271    -0.73400
O2330       O  0.74652814  0.69786902  0.08779702    -0.80900
Mg2331     Mg  0.80974607  0.81282531  0.96062813     1.58000
C2332       C  0.61931311  0.62884768  0.00658923     0.94500
O2333       O  0.79630515  0.84258842  0.92897684    -0.79100
H2334       H  0.65215621  0.74145929  0.97911977    -0.04500
C2335       C  0.73332675  0.67610563  0.01064804     0.89500
O2336       O  0.75086696  0.79922071  0.05051396    -0.73600
O2337       O  0.76258730  0.76485740  0.95240680    -0.86400
O2338       O  0.63331985  0.64289326  0.98469566    -0.79200
C2339       C  0.67527082  0.69677780  0.90990323     0.94600
C2340       C  0.77050284  0.83577640  0.91368960     0.94500
Mg2341     Mg  0.68204287  0.69356410  0.03844984     1.58000
O2342       O  0.69416571  0.66386864  0.06942351    -0.79100
O2343       O  0.66095258  0.72087904  0.01198472    -0.73400
O2344       O  0.69778967  0.72898472  0.91306010    -0.79200
O2345       O  0.85996972  0.86333940  0.97027487    -0.80900
O2346       O  0.79144177  0.77940221  0.08758537    -0.79200
C2347       C  0.66659384  0.73017288  0.98816924     0.88900
O2348       O  0.72902780  0.74230814  0.04708162    -0.86400
O2349       O  0.71119815  0.68542139  0.00739379    -0.86500
O2350       O  0.75919033  0.69241926  0.02621955    -0.73600
Mg2351     Mg  0.71539360  0.76778721  0.94691847     1.58000
O2352       O  0.66552464  0.67447859  0.92847552    -0.80900
H2353       H  0.76044154  0.84985047  0.00402503    -0.04700
O2354       O  0.80217146  0.77580818  0.02465115    -0.86200
H2355       H  0.83681969  0.75937479  0.01864364    -0.04500
H2356       H  0.70285797  0.76315504  0.06479537    -0.04700
C2357       C  0.82333658  0.77233520  0.01073652     0.88900
C2358       C  0.75876112  0.82883292  0.99188251     0.89500
C2359       C  0.72646293  0.76774781  0.05461720     0.89500
H2360       H  0.73116104  0.65417898  0.99942958    -0.04600
O2361       O  0.74415870  0.70851869  0.95000257    -0.73700
Mg2362     Mg  0.77474608  0.73782365  0.05540105     1.58000
H2363       H  0.79045089  0.74607906  0.93453078    -0.04600
C2364       C  0.87585276  0.87328469  0.99221580     0.94500
O2365       O  0.83242971  0.82962629  0.07031402    -0.80900
C2366       C  0.81982957  0.80855934  0.08957008     0.94600
O2367       O  0.74023632  0.80934630  0.91684693    -0.80900
Mg2368     Mg  0.68924194  0.67956676  0.96889404     1.58200
O2369       O  0.86186593  0.85830685  0.01386121    -0.79200
O2370       O  0.63360898  0.64192541  0.02856544    -0.80900
O2371       O  0.53074418  0.71144707  0.99226015    -0.86500
C2372       C  0.96692424  0.72874276  0.94094197     0.89500
Mg2373     Mg  0.51356488  0.69018478  0.03077924     1.58100
O2374       O  0.53628844  0.80366752  0.97346543    -0.86200
O2375       O  0.57463510  0.75773595  0.97445700    -0.73500
C2376       C  0.94147076  0.77324596  0.08599106     0.94600
O2377       O  0.94594703  0.66485898  0.98507804    -0.73400
O2378       O  0.93840327  0.74284311  0.08505048    -0.80900
Mg2379     Mg  0.99411002  0.68308385  0.95835841     1.58000
C2380       C  0.50713440  0.87573618  0.00429127     0.94500
O2381       O  0.53789025  0.69200409  0.92987362    -0.79100
H2382       H  0.58675180  0.83647416  0.98272697    -0.04500
C2383       C  0.93610229  0.75967588  0.00732817     0.89500
O2384       O  0.53985205  0.74470922  0.04976731    -0.73600
O2385       O  0.99476663  0.73101458  0.94861145    -0.86400
O2386       O  0.51077564  0.86280666  0.98291139    -0.79200
C2387       C  0.52606283  0.82493319  0.90813907     0.94600
C2388       C  0.55712756  0.71438172  0.91262438     0.94500
Mg2389     Mg  0.50208185  0.81021816  0.03749190     1.58000
O2390       O  0.95798163  0.79643600  0.06835399    -0.79100
O2391       O  0.55227319  0.82811467  0.01232150    -0.73400
O2392       O  0.53211456  0.79941521  0.90972885    -0.79200
O2393       O  0.99448936  0.63302105  0.96880425    -0.80900
O2394       O  0.96846055  0.68894054  0.08592571    -0.79200
C2395       C  0.55952834  0.82334666  0.98900027     0.88900
O2396       O  0.50144437  0.76276052  0.04854242    -0.86400
O2397       O  0.96759656  0.78188801  0.00496737    -0.86500
O2398       O  0.92594336  0.73380080  0.02289926    -0.73600
Mg2399     Mg  0.54917823  0.77602340  0.94365602     1.58000
O2400       O  0.51282164  0.83342278  0.92708709    -0.80900
H2401       H  0.58085259  0.72788467  0.00199101    -0.04700
O2402       O  0.96558899  0.68926156  0.02343812    -0.86200
H2403       H  0.91458293  0.65538742  0.01689881    -0.04500
H2404       H  0.54805996  0.79015341  0.06644705    -0.04700
C2405       C  0.94106673  0.66900966  0.00906671     0.88900
C2406       C  0.56270942  0.73172005  0.98993397     0.89500
C2407       C  0.53011279  0.76662879  0.05575407     0.89500
H2408       H  0.91680124  0.76193673  0.99551315    -0.04600
O2409       O  0.95912101  0.75236080  0.94618107    -0.73700
Mg2410     Mg  0.95203800  0.71499626  0.05333829     1.58000
H2411       H  0.94842885  0.70575835  0.92996809    -0.04600
C2412       C  0.99303076  0.61894769  0.99091225     0.94500
O2413       O  0.99956145  0.66622111  0.06859297    -0.80900
C2414       C  0.98259070  0.66960494  0.08748881     0.94600
O2415       O  0.56299271  0.74595399  0.91290695    -0.80900
Mg2416     Mg  0.98655178  0.80634404  0.96684557     1.58200
O2417       O  0.99491578  0.63412147  0.01262345    -0.79200
O2418       O  0.50144423  0.85985807  0.02613614    -0.80900
O2419       O  0.63310751  0.51645952  0.67275201    -0.86500
C2420       C  0.69832669  0.59771366  0.72128127     0.89500
Mg2421     Mg  0.65035558  0.50969417  0.63487509     1.58100
O2422       O  0.63447206  0.60985170  0.68795779    -0.86200
O2423       O  0.59186515  0.52568049  0.68805112    -0.73500
C2424       C  0.72998429  0.66613706  0.57787277     0.94600
O2425       O  0.71738516  0.55030513  0.67962194    -0.73400
O2426       O  0.73365786  0.63933510  0.58028209    -0.80900
Mg2427     Mg  0.66800893  0.52388506  0.70554163     1.58000
C2428       C  0.66457408  0.70839598  0.65549010     0.94500
O2429       O  0.62359845  0.99556570  0.73862375    -0.79100
H2430       H  0.58422368  0.59554380  0.68048041    -0.04500
C2431       C  0.73255042  0.65947280  0.65641958     0.89500
O2432       O  0.62649382  0.53952051  0.61422532    -0.73600
O2433       O  0.67006201  0.57319640  0.71324955    -0.86400
O2434       O  0.66380042  0.69417481  0.67746241    -0.79200
C2435       C  0.64674870  0.64275239  0.75339582     0.94600
C2436       C  0.60627191  0.00356155  0.75462916     0.94500
Mg2437     Mg  0.66739390  0.64465621  0.62430806     1.58000
O2438       O  0.71173792  0.67297094  0.59391673    -0.79100
O2439       O  0.61721996  0.61694910  0.64940884    -0.73400
O2440       O  0.63695856  0.61045908  0.75041178    -0.79200
O2441       O  0.66333225  0.97122266  0.69795622    -0.80900
O2442       O  0.69923768  0.55627914  0.57891678    -0.79200
C2443       C  0.61092509  0.60721580  0.67318700     0.88900
O2444       O  0.66567566  0.59559806  0.61580597    -0.86400
O2445       O  0.70139203  0.65202950  0.65763165    -0.86500
O2446       O  0.74222372  0.64195961  0.64227372    -0.73600
Mg2447     Mg  0.61937502  0.57047524  0.71769772     1.58000
O2448       O  0.66258525  0.66522607  0.73531552    -0.80900
H2449       H  0.58252963  0.48637403  0.66260982    -0.04700
O2450       O  0.69979519  0.55770739  0.64135259    -0.86200
H2451       H  0.74982268  0.57065897  0.64815966    -0.04500
H2452       H  0.61973225  0.57741418  0.59701642    -0.04700
C2453       C  0.72335214  0.55973335  0.65579050     0.88900
C2454       C  0.60176773  0.50817783  0.67421834     0.89500
C2455       C  0.63694673  0.57130992  0.60826411     0.89500
H2456       H  0.75189866  0.68071373  0.66839654    -0.04600
O2457       O  0.70779341  0.62953205  0.71614621    -0.73700
Mg2458     Mg  0.71613801  0.59760713  0.61178166     1.58000
H2459       H  0.71580508  0.59189478  0.73244976    -0.04600
C2460       C  0.66597172  0.95856170  0.67613626     0.94500
O2461       O  0.66853527  0.50190694  0.59492180    -0.80900
C2462       C  0.68583999  0.52311192  0.57651457     0.94600
O2463       O  0.60410647  0.53070513  0.74973599    -0.80900
Mg2464     Mg  0.68285338  0.65843037  0.69535583     1.58200
O2465       O  0.66589486  0.97208996  0.65406207    -0.79200
O2466       O  0.66904180  0.69672026  0.63371742    -0.80900
C2467       C  0.56794456  0.65746584  0.85932303     0.04100
C2468       C  0.60228880  0.66220714  0.85859997     0.04100
C2469       C  0.61468080  0.65490637  0.83527428    -0.16400
C2470       C  0.59242617  0.63988930  0.81351430     0.04100
C2471       C  0.55639184  0.63050105  0.81560659     0.04100
C2472       C  0.54491723  0.64007729  0.83836348    -0.16400
H2473       H  0.51788445  0.63455823  0.83956019     0.06200
H2474       H  0.64098269  0.65844197  0.83450809     0.06200
C2475       C  0.56471933  0.90350862  0.86029151     0.04100
C2476       C  0.59647069  0.93668958  0.86092049     0.04100
C2477       C  0.60874583  0.95599293  0.83736994    -0.16400
C2478       C  0.59012359  0.94340916  0.81369180     0.04100
C2479       C  0.55879264  0.91068861  0.81313006     0.04100
C2480       C  0.54656671  0.89102238  0.83627397    -0.16400
H2481       H  0.52225522  0.86598899  0.83559831     0.06200
H2482       H  0.63279982  0.98126268  0.83742630     0.06200
O2483       O  0.97937592  0.61639350  0.66846528    -0.86500
C2484       C  0.90537434  0.60208771  0.72349577     0.89500
Mg2485     Mg  0.98323951  0.63959640  0.63046516     1.58100
O2486       O  0.89323734  0.52537986  0.69151484    -0.86200
O2487       O  0.97687755  0.57039582  0.68718525    -0.73500
C2488       C  0.82029597  0.55295282  0.58390128     0.94600
O2489       O  0.94359673  0.66401765  0.67818315    -0.73400
O2490       O  0.84804767  0.58284120  0.58102519    -0.80900
Mg2491     Mg  0.97615368  0.64521292  0.70155166     1.58000
C2492       C  0.79206852  0.95647483  0.66055179     0.94500
O2493       O  0.51149422  0.62947323  0.73100874    -0.79100
H2494       H  0.91108382  0.49310818  0.68107132    -0.04500
C2495       C  0.83771162  0.57018081  0.66047863     0.89500
O2496       O  0.95425257  0.58563990  0.61068237    -0.73600
O2497       O  0.92933441  0.59857861  0.71391917    -0.86400
O2498       O  0.80822329  0.96946893  0.68206597    -0.79200
C2499       C  0.86324447  0.50679615  0.75728409     0.94600
C2500       C  0.50665715  0.60848023  0.74977467     0.94500
Mg2501     Mg  0.85199548  0.52094052  0.62879516     1.58000
O2502       O  0.81631504  0.53292390  0.60319265    -0.79100
O2503       O  0.88520285  0.50264041  0.65199706    -0.73400
O2504       O  0.89556569  0.53055518  0.75493632    -0.79200
O2505       O  0.52836827  0.69279110  0.69408583    -0.80900
O2506       O  0.93173512  0.63894939  0.57669336    -0.79200
C2507       C  0.89683311  0.50630436  0.67536527     0.88900
O2508       O  0.89847915  0.56779203  0.61632689    -0.86400
O2509       O  0.84834886  0.54896024  0.66219559    -0.86500
O2510       O  0.85075717  0.59511962  0.64392178    -0.73600
Mg2511     Mg  0.93493822  0.55313753  0.71990573     1.58000
O2512       O  0.84110473  0.49924546  0.73879038    -0.80900
H2513       H  0.01057328  0.59743377  0.65748754    -0.04700
O2514       O  0.93483902  0.64049382  0.63894221    -0.86200
H2515       H  0.91825147  0.67392499  0.64892691    -0.04500
H2516       H  0.91499949  0.54021225  0.59537294    -0.04700
C2517       C  0.93195847  0.66025643  0.65483030     0.88900
C2518       C  0.99000799  0.59517971  0.67048444     0.89500
C2519       C  0.92202252  0.56367352  0.60668058     0.89500
H2520       H  0.81719489  0.56777694  0.67359645    -0.04600
O2521       O  0.87327920  0.57915170  0.71993271    -0.73700
Mg2522     Mg  0.89253459  0.61333822  0.61104880     1.58000
H2523       H  0.91184295  0.62552959  0.73464594    -0.04600
C2524       C  0.53936809  0.70801691  0.67213451     0.94500
O2525       O  0.98749372  0.66396513  0.59064048    -0.80900
C2526       C  0.96475562  0.65928309  0.57324242     0.94600
O2527       O  0.97940323  0.58354269  0.74966951    -0.80900
Mg2528     Mg  0.84459348  0.52500829  0.69982561     1.58200
O2529       O  0.52451994  0.69399788  0.65053354    -0.79200
O2530       O  0.80323523  0.97201230  0.63862243    -0.80900
O2531       O  0.84822292  0.80249511  0.66392577    -0.86500
C2532       C  0.92468835  0.86296139  0.61039876     0.89500
Mg2533     Mg  0.84242705  0.82305838  0.70047686     1.58100
O2534       O  0.93608453  0.79770859  0.64076902    -0.86200
O2535       O  0.85282306  0.75997449  0.64512088    -0.73500
C2536       C  0.49964428  0.89564679  0.75322299     0.94600
O2537       O  0.88256223  0.88644382  0.65208445    -0.73400
O2538       O  0.97387149  0.89998126  0.74891197    -0.80900
Mg2539     Mg  0.85241212  0.83384027  0.63032647     1.58000
C2540       C  0.53652391  0.82932597  0.67477645     0.94500
O2541       O  0.81790106  0.78358820  0.60835513    -0.79100
H2542       H  0.91932398  0.74756737  0.65006856    -0.04500
C2543       C  0.98991223  0.89735251  0.67204106     0.89500
O2544       O  0.87085351  0.79841259  0.72223803    -0.73600
O2545       O  0.90093789  0.83589436  0.62043327    -0.86400
O2546       O  0.52136505  0.82644453  0.65275191    -0.79200
C2547       C  0.96505861  0.81072574  0.57464722     0.94600
C2548       C  0.82396957  0.77547399  0.58598003     0.94500
Mg2549     Mg  0.97407502  0.83248953  0.70481322     1.58000
O2550       O  0.50541013  0.87665244  0.73724531    -0.79100
O2551       O  0.94339968  0.78213447  0.67994597    -0.73400
O2552       O  0.93415891  0.80593509  0.57795231    -0.79200
O2553       O  0.80191384  0.83188113  0.63957578    -0.80900
O2554       O  0.89303936  0.86806131  0.75380519    -0.79200
C2555       C  0.93257239  0.77470945  0.65640064     0.88900
O2556       O  0.92661502  0.83327559  0.71431967    -0.86400
O2557       O  0.98129168  0.86591376  0.67112068    -0.86500
O2558       O  0.97418764  0.90846541  0.68686908    -0.73600
Mg2559     Mg  0.89497934  0.78584779  0.61229804     1.58000
O2560       O  0.98784097  0.82168471  0.59311495    -0.80900
H2561       H  0.81922671  0.75233012  0.67526231    -0.04700
O2562       O  0.89058954  0.87033446  0.69082639    -0.86200
H2563       H  0.90576823  0.92043713  0.68241295    -0.04500
H2564       H  0.90957338  0.79076138  0.73708707    -0.04700
C2565       C  0.89319507  0.89348658  0.67567370     0.88900
C2566       C  0.83914648  0.77096767  0.66209494     0.89500
C2567       C  0.90292123  0.80699595  0.72516745     0.89500
H2568       H  0.01066831  0.91572309  0.65927033    -0.04600
O2569       O  0.95680438  0.87135405  0.61295834    -0.73700
Mg2570     Mg  0.93161361  0.88455491  0.71892173     1.58000
H2571       H  0.91805576  0.87995477  0.59944905    -0.04600
C2572       C  0.79016436  0.83682110  0.66083204     0.94500
O2573       O  0.83854152  0.84739004  0.73852311    -0.80900
C2574       C  0.86140415  0.86136009  0.75664956     0.94600
O2575       O  0.85275020  0.77603560  0.58126073    -0.80900
Mg2576     Mg  0.98509345  0.84518379  0.63312719     1.58200
O2577       O  0.80548977  0.84056729  0.68277229    -0.79200
O2578       O  0.52451731  0.83365721  0.69635325    -0.80900
C2579       C  0.80784633  0.89287397  0.85232986     0.04100
C2580       C  0.79899726  0.91982327  0.85050318     0.04100
C2581       C  0.80449807  0.93791224  0.82674316    -0.16400
C2582       C  0.81708471  0.92882270  0.80450166     0.04100
C2583       C  0.82268472  0.89975664  0.80559084     0.04100
C2584       C  0.81916567  0.88298588  0.82981075    -0.16400
H2585       H  0.82373798  0.86093353  0.83105181     0.06200
H2586       H  0.79910137  0.95945994  0.82554635     0.06200
C2587       C  0.50652487  0.73893749  0.47766559     0.04100
C2588       C  0.50670141  0.77125558  0.47731899     0.04100
C2589       C  0.50086706  0.78440210  0.50086732    -0.16400
C2590       C  0.98480341  0.76167541  0.52050615     0.04100
C2591       C  0.97907620  0.72688013  0.51984536     0.04100
C2592       C  0.49750217  0.71912618  0.50082598    -0.16400
H2593       H  0.49625244  0.69387142  0.50069257     0.06200
H2594       H  0.50226191  0.80972905  0.50076265     0.06200
C2595       C  0.72665355  0.74406341  0.47871616     0.04100
C2596       C  0.75757943  0.77746947  0.47997968     0.04100
C2597       C  0.78178674  0.78438070  0.50042148    -0.16400
C2598       C  0.77497604  0.75960781  0.52032453     0.04100
C2599       C  0.74208101  0.72794829  0.52054055     0.04100
C2600       C  0.71897789  0.72026421  0.49934574    -0.16400
H2601       H  0.69447985  0.69532440  0.49894728     0.06200
H2602       H  0.80630693  0.80927648  0.50077589     0.06200
C2603       C  0.75664656  0.97661846  0.48183754     0.04100
C2604       C  0.72232892  0.97229646  0.48057350     0.04100
C2605       C  0.71099539  0.98640946  0.50073377    -0.16400
C2606       C  0.73586759  0.51203859  0.51896368     0.04100
C2607       C  0.77192239  0.52148040  0.51806019     0.04100
C2608       C  0.77779736  0.99320147  0.50393197    -0.16400
H2609       H  0.80311410  0.99452633  0.50579537     0.06200
H2610       H  0.68518587  0.98405629  0.49935593     0.06200
C2611       C  0.50153421  0.96612394  0.00013423     0.04100
C2612       C  0.53224826  0.99924959  0.00292190     0.04100
C2613       C  0.53129470  0.53158282  0.00330374     0.04100
C2614       C  0.49805330  0.52876661  0.99979732     0.04100
C2615       C  0.96717208  0.99649047  0.99875419     0.04100
C2616       C  0.96884511  0.96515751  0.99938612     0.04100
C2617       C  0.86215321  0.66182213  0.32915226     0.04100
C2618       C  0.86596533  0.69562795  0.33055151     0.04100
C2619       C  0.83626001  0.69944973  0.33536353     0.04100
C2620       C  0.80237511  0.66934996  0.33776378     0.04100
C2621       C  0.79838859  0.63553531  0.33526292     0.04100
C2622       C  0.82828737  0.63162238  0.33150656     0.04100
C2623       C  0.69546406  0.83282433  0.66229711     0.04100
C2624       C  0.69630208  0.86513028  0.66525376     0.04100
C2625       C  0.66462783  0.86542290  0.66977712     0.04100
C2626       C  0.63212104  0.83342619  0.67061367     0.04100
C2627       C  0.63160725  0.80125285  0.66740992     0.04100
C2628       C  0.66315312  0.80080081  0.66277155     0.04100
C2629       C  0.56986860  0.83016819  0.67488500    -0.11400
C2630       C  0.59877168  0.83294678  0.67371849    -0.13000
C2631       C  0.75716573  0.83587846  0.66025353    -0.11400
C2632       C  0.72845926  0.83310301  0.66031228    -0.13000
C2633       C  0.85192082  0.87183112  0.78142505    -0.14600
C2634       C  0.83090744  0.88607164  0.78145302    -0.29800
H2635       H  0.86559887  0.87180181  0.79921141     0.14400
H2636       H  0.82036190  0.88887435  0.76287048     0.15000
C2637       C  0.80298723  0.76781604  0.54009921    -0.14600
C2638       C  0.79651293  0.76574293  0.56592952    -0.29800
H2639       H  0.82983898  0.77795280  0.53321218     0.14400
H2640       H  0.77047983  0.75945319  0.57272839     0.15000
C2641       C  0.97302815  0.80155197  0.54859401    -0.14600
C2642       C  0.98490536  0.77867425  0.54608004    -0.29800
H2643       H  0.96240440  0.80799305  0.53157709     0.14400
H2644       H  0.99183024  0.76967999  0.56379695     0.15000
C2645       C  0.75877876  0.92402438  0.66156421    -0.11400
C2646       C  0.73005161  0.89785734  0.66335160    -0.13000
C2647       C  0.57088800  0.74151694  0.67127085    -0.11400
C2648       C  0.59848828  0.76858298  0.66947392    -0.13000
C2649       C  0.82556521  0.95090028  0.78064494    -0.14600
C2650       C  0.85083898  0.98503046  0.78096839    -0.29800
H2651       H  0.81341695  0.93831145  0.76215445     0.14400
H2652       H  0.86640258  0.49781478  0.79975399     0.15000
C2653       C  0.79834893  0.54438074  0.53815939    -0.14600
C2654       C  0.79187860  0.53890373  0.56406298    -0.29800
H2655       H  0.82525116  0.56175054  0.53167742     0.14400
H2656       H  0.76611737  0.51832989  0.57052298     0.15000
C2657       C  0.96714570  0.70402449  0.54357615    -0.14600
C2658       C  0.97696769  0.68008174  0.54896434    -0.29800
H2659       H  0.95004683  0.70733716  0.55736964     0.14400
H2660       H  0.99661048  0.67838790  0.53700283     0.15000
C2661       C  0.53891215  0.89604398  0.78833992    -0.14600
C2662       C  0.52187833  0.91073631  0.77668561    -0.29800
H2663       H  0.53658066  0.87189673  0.78060818     0.14400
H2664       H  0.52118851  0.93243848  0.78635584     0.15000
C2665       C  0.52954736  0.61126645  0.79475058    -0.14600
C2666       C  0.53534531  0.62063349  0.76935462    -0.29800
H2667       H  0.50287685  0.59256672  0.80097754     0.14400
H2668       H  0.06170848  0.64746861  0.76092166     0.15000
C2669       C  0.66232751  0.76750931  0.65859564    -0.11400
C2670       C  0.66216577  0.74000488  0.65593884    -0.13000
C2671       C  0.66705747  0.92652594  0.67590636    -0.11400
C2672       C  0.66577545  0.89860723  0.67364220    -0.13000
C2673       C  0.59201318  0.98312788  0.77891189    -0.14600
C2674       C  0.60488338  0.96369399  0.78925836    -0.29800
H2675       H  0.57524267  0.48857680  0.78895747     0.14400
H2676       H  0.62650326  0.96247860  0.77981622     0.15000
C2677       C  0.60625530  0.63039072  0.79020544    -0.14600
C2678       C  0.63665747  0.65322502  0.77806028    -0.29800
H2679       H  0.58960552  0.60450862  0.78171345     0.14400
H2680       H  0.65192467  0.68021211  0.78488948     0.15000
C2681       C  0.69295998  0.50881489  0.55244743    -0.14600
C2682       C  0.72291849  0.52793835  0.53872385    -0.29800
H2683       H  0.67656158  0.48090498  0.54840879     0.14400
H2684       H  0.74072252  0.55501916  0.54448267     0.15000
C2685       C  0.74565060  0.68904486  0.55482352    -0.14600
C2686       C  0.72864658  0.70391919  0.54338156    -0.29800
H2687       H  0.76992376  0.69231943  0.54642305     0.14400
H2688       H  0.70267434  0.69737831  0.55055592     0.15000
C2689       C  0.99181738  0.58571877  0.99174134    -0.11400
C2690       C  0.99404796  0.55951175  0.99359576    -0.13000
C2691       C  0.50417230  0.93437923  0.00178120    -0.11400
C2692       C  0.50706628  0.90845075  0.00325378    -0.13000
C2693       C  0.53636460  0.84601951  0.88377507    -0.14600
C2694       C  0.55025306  0.88125729  0.88428033    -0.29800
H2695       H  0.53665632  0.83312338  0.86562206     0.14400
H2696       H  0.55268454  0.89406502  0.90303528     0.15000
C2697       C  0.55485631  0.66927374  0.88205088    -0.14600
C2698       C  0.57196412  0.70272761  0.89115247    -0.29800
H2699       H  0.52914612  0.65074170  0.89003545     0.14400
H2700       H  0.59591978  0.72221514  0.88147213     0.15000
C2701       C  0.56225337  0.56621124  0.00529503    -0.11400
C2702       C  0.58739087  0.59549274  0.00625604    -0.13000
C2703       C  0.93717693  0.93151091  0.99570371    -0.11400
C2704       C  0.91007415  0.90402841  0.99318596    -0.13000
C2705       C  0.77500505  0.85802471  0.89089510    -0.14600
C2706       C  0.80486201  0.87349595  0.87691522    -0.29800
H2707       H  0.75197564  0.85875493  0.88375075     0.14400
H2708       H  0.82655882  0.86936765  0.88229995     0.15000
C2709       C  0.62276127  0.66980418  0.88327181    -0.14600
C2710       C  0.65799213  0.68630072  0.88429202    -0.29800
H2711       H  0.60815983  0.66266609  0.90166048     0.14400
H2712       H  0.67374157  0.69714224  0.86669237     0.15000
C2713       C  0.90686762  0.49641279  0.99438875    -0.11400
C2714       C  0.93266546  0.49321277  0.99384724    -0.13000
C2715       C  0.56571813  0.00046229  0.00678597    -0.11400
C2716       C  0.59185858  0.99793337  0.00874644    -0.13000
C2717       C  0.65291411  0.96810792  0.88640750    -0.14600
C2718       C  0.61729107  0.95127892  0.88574811    -0.29800
H2719       H  0.66739802  0.97043551  0.86848690     0.14400
H2720       H  0.60319574  0.94625136  0.90421392     0.15000
C2721       C  0.78346001  0.92975738  0.87246724    -0.14600
C2722       C  0.79612629  0.93452988  0.89699379    -0.29800
H2723       H  0.76229550  0.93507699  0.86794711     0.14400
H2724       H  0.81947582  0.93260565  0.90103179     0.15000
C2725       C  0.93257168  0.81480631  0.11373174    -0.14600
C2726       C  0.92705952  0.78221781  0.10922001    -0.29800
H2727       H  0.94559796  0.83533995  0.09912244     0.14400
H2728       H  0.91356163  0.76204168  0.12404003     0.15000
C2729       C  0.87383245  0.82951467  0.11527313    -0.14600
C2730       C  0.83878005  0.81644986  0.11465511    -0.29800
H2731       H  0.88834188  0.83673845  0.09686966     0.14400
H2732       H  0.82316383  0.80544757  0.13229556     0.15000
C2733       C  0.82400954  0.59661082  0.33031704    -0.11400
C2734       C  0.82096159  0.56769038  0.32973871    -0.13000
C2735       C  0.84079175  0.73440511  0.33737388    -0.11400
C2736       C  0.84449933  0.76351286  0.33835017    -0.13000
C2737       C  0.76970096  0.96193012  0.46113541    -0.14600
C2738       C  0.80117522  0.98144968  0.44933403    -0.29800
H2739       H  0.75133324  0.93616256  0.45317567     0.14400
H2740       H  0.81805648  0.00857771  0.45541726     0.15000
C2741       C  0.76579531  0.79930873  0.43449818    -0.14600
C2742       C  0.76609798  0.80550597  0.46027971    -0.29800
H2743       H  0.76030851  0.77350853  0.42788714     0.14400
H2744       H  0.77566292  0.83218778  0.46720645     0.15000
C2745       C  0.87139722  0.86087185  0.21671640    -0.14600
C2746       C  0.88565288  0.84036522  0.21316173    -0.29800
H2747       H  0.87043375  0.87649807  0.20054769     0.14400
H2748       H  0.89001755  0.82794050  0.23010049     0.15000
C2749       C  0.73414796  0.57917131  0.33627967    -0.11400
C2750       C  0.76322611  0.60482620  0.33605683    -0.13000
C2751       C  0.90078382  0.72649622  0.32708109    -0.11400
C2752       C  0.92976079  0.75203781  0.32460821    -0.13000
C2753       C  0.52981482  0.82510120  0.44951339    -0.14600
C2754       C  0.51086869  0.78997394  0.45197751    -0.29800
H2755       H  0.54358906  0.84119098  0.46645488     0.14400
H2756       H  0.50037659  0.77409850  0.43433661     0.15000
C2757       C  0.69723696  0.95345099  0.45867172    -0.14600
C2758       C  0.70596551  0.96112976  0.43319992    -0.29800
H2759       H  0.66970787  0.93631774  0.46377086     0.14400
H2760       H  0.73251309  0.98143786  0.42808924     0.15000
C2761       C  0.96796966  0.87407368  0.22171880    -0.14600
C2762       C  0.95417385  0.84280864  0.20921450    -0.29800
H2763       H  0.96231695  0.89399629  0.21439863     0.14400
H2764       H  0.96268026  0.82422987  0.21454378     0.15000
C2765       C  0.94585259  0.63030475  0.12286435    -0.14600
C2766       C  0.97757597  0.64829529  0.11115831    -0.29800
H2767       H  0.92460422  0.63408298  0.11577795     0.14400
H2768       H  0.99831685  0.64257588  0.11617529     0.15000
C2769       C  0.85591854  0.53018249  0.11572546    -0.14600
C2770       C  0.87617605  0.56309637  0.12508254    -0.29800
H2771       H  0.86058213  0.50930495  0.12228569     0.14400
H2772       H  0.87352329  0.58417266  0.11632297     0.15000
C2773       C  0.91555318  0.52841782  0.20533808    -0.14600
C2774       C  0.89563727  0.52856722  0.22526541    -0.29800
H2775       H  0.92613229  0.51068737  0.20518272     0.14400
H2776       H  0.88659433  0.54759887  0.22516565     0.15000
C2777       C  0.72438355  0.64912907  0.13094260    -0.14600
C2778       C  0.70399341  0.64649163  0.11045764    -0.29800
H2779       H  0.75204001  0.66920714  0.13156456     0.14400
H2780       H  0.67649673  0.62577423  0.11051718     0.15000
C2781       C  0.72896031  0.58386367  0.13304425    -0.14600
C2782       C  0.71762251  0.57991890  0.10808149    -0.29800
H2783       H  0.74833586  0.57643615  0.13855612     0.14400
H2784       H  0.69509675  0.58299362  0.10359931     0.15000
C2785       C  0.66416917  0.55261904  0.21821783    -0.14600
C2786       C  0.64486106  0.51723872  0.21635986    -0.29800
H2787       H  0.66971556  0.56475819  0.23756141     0.14400
H2788       H  0.63402722  0.00574340  0.19744231     0.15000
C2789       C  0.74326846  0.67192914  0.34417531    -0.11400
C2790       C  0.77107835  0.67245300  0.34201400    -0.13000
C2791       C  0.92277025  0.66220859  0.32459987    -0.11400
C2792       C  0.89381940  0.65923589  0.32594727    -0.13000
C2793       C  0.51935329  0.72762265  0.45467946    -0.14600
C2794       C  0.50633728  0.69386373  0.44746700    -0.29800
H2795       H  0.54008433  0.74812630  0.44284151     0.14400
H2796       H  0.48330435  0.67295386  0.45712851     0.15000
C2797       C  0.68800224  0.74821228  0.44445309    -0.14600
C2798       C  0.70313934  0.73122248  0.45551582    -0.29800
H2799       H  0.69088203  0.77203418  0.45331329     0.14400
H2800       H  0.69694370  0.70560070  0.44790016     0.15000
C2801       C  0.97758137  0.59535099  0.22793803    -0.14600
C2802       C  0.98524010  0.59357829  0.20265738    -0.29800
H2803       H  0.44848826  0.59804551  0.23872068     0.14400
H2804       H  0.01233252  0.60290336  0.19674927     0.15000
C2805       C  0.65502137  0.61516568  0.21414302    -0.14600
C2806       C  0.66420436  0.64792709  0.22222513    -0.29800
H2807       H  0.63348880  0.59299412  0.22415997     0.14400
H2808       H  0.68794279  0.67036837  0.21465081     0.15000
loop_ 
_geom_bond_atom_site_label_1 
_geom_bond_atom_site_label_2 
_geom_bond_distance 
_geom_bond_site_symmetry_2 
_ccdc_geom_bond_type 
O1           Mg3   2.151       .  S
O1           Mg9   2.140       .  S
O1           C36   1.236       .  S
C2           O15   1.234       .  S
C2           O39   1.268       .  A
C2           H41   1.081       .  S
Mg3          O32   2.157       .  S
Mg3          O43   2.274       .  S
Mg3          O14   2.297       .  S
Mg3        O1451   2.295   1_455  S
O4          Mg46   2.181       .  S
O4          Mg29   2.161       .  S
O4           C25   1.234       .  S
O5           C36   1.274       .  A
O5          Mg29   2.330       .  S
C6            O8   1.268       .  A
C6           O20   1.277       .  A
C6          C691   1.471       .  S
O7           C35   1.272       .  A
O7           Mg9   2.301       .  S
O8          Mg40   2.250       .  S
Mg9          O15   2.162       .  S
Mg9        O1427   2.256   1_455  S
Mg9        O1415   2.250   1_455  S
C10          O48   1.273       .  A
C10          O16   1.273       .  A
C10         C683   1.442       .  S
O11          C18   1.266       .  A
O11       Mg1413   2.262       .  S
H12          C25   1.081       .  S
C13          O27   1.236       .  S
C13          O28   1.270       .  A
C13          H38   1.081       .  S
O14          C37   1.267       .  A
O15         Mg29   2.151       .  S
O16         Mg46   2.301       .  S
C17          O30   1.271       .  A
C17          O22   1.280       .  A
C17         C700   1.479       .  S
C18        O1449   1.275       .  A
C18         C695   1.472       .  S
Mg19         O26   2.146       .  S
Mg19         O27   2.167       .  S
Mg19         O20   2.300       .  S
Mg19         O21   2.301       .  S
Mg19         O48   2.291       .  S
O21          C25   1.269       .  A
O22         Mg29   2.339       .  S
O23          C42   1.267       .  A
O23       Mg1413   2.260       .  S
O24          C44   1.273       .  A
O24         Mg40   2.304       .  S
O26         Mg40   2.166       .  S
O26          C37   1.232       .  S
O27         Mg46   2.154       .  S
O28         Mg40   2.295       .  S
Mg29         O45   2.330       .  S
O30         Mg46   2.257       .  S
H31          C36   1.081   1_655  S
O32         Mg40   2.146       .  S
O32          C35   1.238       .  S
H33          C35   1.081       .  S
H34          C37   1.081       .  S
O39         Mg46   2.298       .  S
C42          O47   1.271       .  A
C42         C685   1.437       .  S
O43          C44   1.272       .  A
C44         C688   1.472       .  S
O45        C1422   1.276       .  A
O47       Mg1407   2.297       .  S
C49         C679   1.489       .  S
C49          C50   1.424       .  A
C49          C54   1.408       .  A
C50         C699   1.499       .  S
C50          C51   1.410       .  A
C51          H56   1.083       .  S
C51          C52   1.403       .  A
C52         C671   1.479       .  S
C52          C53   1.408       .  A
C53         C675   1.481       .  S
C53          C54   1.399       .  A
C54          H55   1.084       .  S
C57         C667   1.488       .  S
C57          C58   1.423       .  A
C57          C62   1.404       .  A
C58         C696   1.491       .  S
C58          C59   1.404       .  A
C59          H64   1.085       .  S
C59          C60   1.405       .  A
C60         C659   1.487       .  S
C60          C61   1.419       .  A
C61         C664   1.499       .  S
C61          C62   1.408       .  A
C62          H63   1.083       .  S
O65         Mg67   2.159       .  S
O65         Mg73   2.151       .  S
O65         C100   1.237       .  S
C66          O79   1.235       .  S
C66         O103   1.269       .  A
C66         H105   1.081       .  S
Mg67         O96   2.155       .  S
Mg67        O107   2.259       .  S
Mg67         O78   2.302       .  S
Mg67        O813   2.302       .  S
O68        Mg110   2.159       .  S
O68         Mg93   2.161       .  S
O68          C89   1.235       .  S
O69         C100   1.272       .  A
O69         Mg93   2.311       .  S
C70          O84   1.274       .  A
C70        O1476   1.276       .  A
C70         C655   1.482       .  S
O71          C99   1.272       .  A
O71         Mg73   2.309       .  S
O72        C1474   1.275   1_455  A
O72        Mg104   2.299       .  S
Mg73         O79   2.138       .  S
Mg73         O75   2.301       .  S
Mg73        O789   2.247       .  S
C74         O112   1.271       .  A
C74          O80   1.273       .  A
C74         C646   1.438       .  S
O75          C82   1.272       .  A
H76          C89   1.081       .  S
C77          O91   1.235       .  S
C77          O92   1.269       .  A
C77         H102   1.081   1_455  S
O78         C101   1.269       .  A
O79         Mg93   2.142       .  S
O80       Mg1514   2.297       .  S
C81          O94   1.274       .  A
C81          O86   1.274       .  A
C81         C647   1.476       .  S
C82         O109   1.274       .  A
C82         C652   1.480       .  S
Mg83         O90   2.155       .  S
Mg83         O91   2.170       .  S
Mg83         O85   2.301       .  S
Mg83       O1488   2.302   1_455  S
Mg83       O1516   2.266   1_455  S
O84       Mg1487   2.297       .  S
O85          C89   1.270       .  A
O86         Mg93   2.305       .  S
O87         C106   1.268       .  A
O87        Mg775   2.258   1_545  S
O88         C108   1.278       .  A
O88        Mg104   2.339       .  S
O90        Mg104   2.170       .  S
O90         C101   1.234       .  S
O91        Mg110   2.167       .  S
O92        Mg104   2.300       .  S
Mg93        O109   2.298       .  S
O94        Mg110   2.284       .  S
H95         C100   1.081       .  S
O96        Mg104   2.170       .  S
O96          C99   1.237       .  S
H97          C99   1.081       .  S
H98         C101   1.081       .  S
O103       Mg110   2.299       .  S
C106        O111   1.273       .  A
C106        C643   1.439       .  S
O107        C108   1.271       .  A
C108       C1382   1.479       .  S
Mg110      O1484   2.299   1_455  S
O111       Mg769   2.311   1_545  S
O112      Mg1487   2.273       .  S
O113       Mg115   2.135       .  S
O113       Mg121   2.146       .  S
O113        C148   1.235       .  S
C114        O127   1.234       .  S
C114        O151   1.269       .  A
C114        H153   1.081       .  S
Mg115       O144   2.148       .  S
Mg115       O159   2.293       .  S
Mg115       O155   2.257       .  S
Mg115       O126   2.296       .  S
O116       Mg158   2.174       .  S
O116       Mg141   2.168       .  S
O116        C137   1.235       .  S
O117        C148   1.271       .  A
O117       Mg141   2.312       .  S
C118        O132   1.280       .  A
C118        O822   1.262   1_545  A
C118        C668   1.471       .  S
O119        C147   1.268       .  A
O119       Mg121   2.288       .  S
O120        C820   1.263       .  A
O120       Mg152   2.212       .  S
Mg121       O127   2.158       .  S
Mg121       O135   2.252       .  S
Mg121       O123   2.253       .  S
C122        O160   1.273       .  A
C122        O128   1.276       .  A
C122        C628   1.438       .  S
O123        C130   1.264       .  A
H124        C137   1.081       .  S
C125        O139   1.237       .  S
C125        O140   1.270       .  A
C125        H150   1.081       .  S
O126        C149   1.268       .  A
O127       Mg141   2.148       .  S
O128       Mg860   2.315   1_545  S
C129        O142   1.273       .  A
C129        O134   1.277       .  A
C129        C632   1.478       .  S
C130        O157   1.275       .  A
C130        C635   1.467       .  S
Mg131       O138   2.143       .  S
Mg131       O139   2.168       .  S
Mg131       O133   2.307       .  S
Mg131       O834   2.322       .  S
Mg131       O862   2.284       .  S
O132       Mg833   2.346   1_545  S
O133        C137   1.270       .  A
O134       Mg141   2.309       .  S
O135        C154   1.267       .  A
O136        C156   1.270       .  A
O136       Mg152   2.293       .  S
O138       Mg152   2.161       .  S
O138        C149   1.234       .  S
O139       Mg158   2.158       .  S
O140       Mg152   2.295       .  S
Mg141       O157   2.307       .  S
O142       Mg158   2.273       .  S
H143        C148   1.081       .  S
O144       Mg152   2.124       .  S
O144        C147   1.236       .  S
H145        C147   1.081       .  S
H146        C149   1.081       .  S
O151       Mg158   2.301       .  S
C154        O159   1.271       .  A
C154        C630   1.432       .  S
O155        C156   1.272       .  A
C156        C639   1.467       .  S
Mg158       O830   2.322       .  S
O160       Mg833   2.271   1_545  S
C161        C656   1.492       .  S
C161        C162   1.411       .  A
C161        C166   1.404       .  A
C162        C640   1.480       .  S
C162        C163   1.404       .  A
C163        H168   1.084       .  S
C163        C164   1.405       .  A
C164        C623   1.482       .  S
C164        C165   1.420       .  A
C165        C619   1.492       .  S
C165        C166   1.407       .  A
C166        H167   1.084       .  S
O169       Mg171   2.173   1_554  S
O169       Mg879   2.166   1_545  S
O169        C204   1.237       .  S
C170        O183   1.232       .  S
C170        O207   1.266       .  A
C170        H209   1.081       .  S
Mg171       O902   2.159   1_545  S
Mg171       O182   2.303       .  S
Mg171       O917   2.282   1_545  S
Mg171       O913   2.298   1_545  S
O172       Mg197   2.152       .  S
O172       Mg916   2.161   1_545  S
O172        C193   1.236       .  S
O173        C204   1.272       .  A
O173       Mg197   2.312       .  S
C174        O176   1.271       .  A
C174        O188   1.266       .  A
C174        C616   1.464       .  S
O175        C203   1.271   1_554  A
O175       Mg177   2.304       .  S
O176       Mg208   2.261       .  S
Mg177       O183   2.154       .  S
Mg177       O871   2.159       .  S
Mg177       O191   2.264       .  S
Mg177       O881   2.288       .  S
C178        O216   1.266       .  A
C178        O184   1.272   1_566  A
C178        C607   1.438       .  S
O179        C186   1.269       .  A
O179       Mg879   2.271   1_545  S
H180        C193   1.081       .  S
C181        O195   1.236       .  S
C181        O196   1.271       .  A
C181        H206   1.081   1_556  S
O182        C205   1.268       .  A
O183       Mg899   2.158       .  S
O184       Mg916   2.306   1_545  S
C185        O198   1.274       .  A
C185        O190   1.275       .  A
C185        C663   1.479       .  S
C186        O213   1.271       .  A
C186        C676   1.471       .  S
Mg187       O194   2.161       .  S
Mg187       O897   2.153       .  S
Mg187       O189   2.299   1_565  S
Mg187       O216   2.254       .  S
Mg187       O890   2.258       .  S
O188       Mg889   2.261       .  S
O189        C193   1.270   1_556  A
O190       Mg197   2.317       .  S
O191        C210   1.269       .  A
O192        C212   1.275       .  A
O192       Mg208   2.321       .  S
O194       Mg910   2.137       .  S
O194        C205   1.232   1_565  S
O195       Mg214   2.151   1_556  S
O195       Mg889   2.158       .  S
O196       Mg208   2.309       .  S
Mg197       O885   2.155   1_545  S
Mg197       O213   2.275       .  S
O198       Mg916   2.284   1_545  S
H199        C204   1.081   1_556  S
O200       Mg208   2.148       .  S
O200       Mg873   2.152       .  S
O200        C203   1.236       .  S
H201        C203   1.081       .  S
H202        C205   1.081       .  S
O207       Mg214   2.290       .  S
Mg208       O896   2.148       .  S
C210        O215   1.270   1_554  A
C210        C610   1.433       .  S
O211        C212   1.273       .  A
O211       Mg873   2.290       .  S
C212        C611   1.482       .  S
Mg214       O874   2.183       .  S
Mg214       O886   2.307       .  S
Mg214       O900   2.270       .  S
O215       Mg873   2.286       .  S
O217       Mg219   2.146   1_556  S
O217       Mg225   2.173       .  S
O217        C252   1.236       .  S
C218        O231   1.236       .  S
C218        O255   1.271       .  A
C218        H257   1.081       .  S
Mg219       O248   2.167       .  S
Mg219       O263   2.300       .  S
Mg219       O259   2.278       .  S
Mg219       O230   2.302       .  S
O220       Mg262   2.142       .  S
O220       Mg245   2.131       .  S
O220        C241   1.234       .  S
O221        C252   1.269       .  A
O221       Mg245   2.288       .  S
C222        O224   1.270       .  A
C222        O236   1.269       .  A
C222        C672   1.465       .  S
O223        C251   1.269   1_556  A
O223       Mg225   2.306       .  S
O224       Mg256   2.266       .  S
Mg225       O231   2.142       .  S
Mg225       O239   2.275       .  S
Mg225       O227   2.336       .  S
C226        O264   1.270       .  A
C226        O232   1.274   1_554  A
C226        C596   1.438       .  S
O227        C234   1.278       .  A
H228        C241   1.081       .  S
C229        O243   1.234       .  S
C229        O244   1.269       .  A
C229        H254   1.081   1_554  S
O230        C253   1.270       .  A
O231       Mg245   2.159       .  S
O232       Mg262   2.309       .  S
C233        O246   1.272       .  A
C233        O238   1.267       .  A
C233        C604   1.462       .  S
C234        O261   1.263       .  A
C234        C599   1.471       .  S
Mg235       O242   2.160       .  S
Mg235       O243   2.155       .  S
Mg235       O236   2.270       .  S
Mg235       O237   2.288       .  S
Mg235       O264   2.267       .  S
O237        C241   1.266   1_554  A
O238       Mg245   2.270       .  S
O239        C258   1.274       .  A
O240        C260   1.271       .  A
O240       Mg256   2.271       .  S
O242       Mg256   2.159       .  S
O242        C253   1.236       .  S
O243       Mg262   2.132   1_554  S
O244       Mg256   2.299       .  S
Mg245       O261   2.215       .  S
O246       Mg262   2.263       .  S
H247        C252   1.081   1_554  S
O248       Mg256   2.156       .  S
O248        C251   1.234       .  S
H249        C251   1.081       .  S
H250        C253   1.081       .  S
O255       Mg262   2.303       .  S
C258        O263   1.274   1_556  A
C258        C598   1.435       .  S
O259        C260   1.271       .  A
C260        C624   1.474       .  S
O265       Mg267   2.142   1_556  S
O265      Mg1677   2.163   1_455  S
O265        C300   1.234       .  S
C266        O279   1.234       .  S
C266        O303   1.269       .  A
C266        H305   1.081       .  S
Mg267      O1700   2.175   1_455  S
Mg267       O278   2.289       .  S
Mg267      O1715   2.291   1_455  S
Mg267      O1711   2.243   1_455  S
O268       Mg293   2.175       .  S
O268      Mg1714   2.155   1_455  S
O268        C289   1.237       .  S
O269        C300   1.267       .  A
O269       Mg293   2.288       .  S
C270        O272   1.275       .  A
C270        O284   1.272       .  A
C270        C620   1.481       .  S
O271        C299   1.269   1_556  A
O271       Mg273   2.298       .  S
O272       Mg304   2.296       .  S
Mg273       O279   2.152       .  S
Mg273      O1669   2.167       .  S
Mg273       O287   2.265       .  S
Mg273      O1679   2.282       .  S
C274        O312   1.267       .  A
C274        O280   1.271   1_554  A
C274        C586   1.437       .  S
O275        C282   1.273       .  A
O275      Mg1677   2.288   1_455  S
H276        C289   1.081       .  S
C277        O291   1.237       .  S
C277        O292   1.273       .  A
C277        H302   1.081   1_554  S
O278        C301   1.268       .  A
O279      Mg1697   2.170       .  S
O280      Mg1714   2.301   1_455  S
C281        O294   1.271       .  A
C281        O286   1.276       .  A
C281        C587   1.477       .  S
C282        O309   1.276       .  A
C282        C592   1.480       .  S
Mg283       O290   2.148       .  S
Mg283      O1695   2.149   1_455  S
Mg283       O285   2.316       .  S
Mg283       O312   2.259       .  S
Mg283      O1688   2.303   1_455  S
O284      Mg1687   2.301       .  S
O285        C289   1.273   1_554  A
O286       Mg293   2.319       .  S
O287        C306   1.270       .  A
O288        C308   1.278       .  A
O288       Mg304   2.332       .  S
O290      Mg1708   2.163   1_455  S
O290        C301   1.235       .  S
O291       Mg310   2.167   1_554  S
O291      Mg1687   2.156       .  S
O292       Mg304   2.317       .  S
Mg293      O1683   2.172   1_455  S
Mg293       O309   2.299       .  S
O294      Mg1714   2.265   1_455  S
H295        C300   1.081   1_554  S
O296       Mg304   2.155       .  S
O296      Mg1671   2.155       .  S
O296        C299   1.235       .  S
H297        C299   1.081       .  S
H298        C301   1.081       .  S
O303       Mg310   2.303       .  S
Mg304      O1694   2.149       .  S
C306        O311   1.271   1_556  A
C306        C583   1.433       .  S
O307        C308   1.272       .  A
O307      Mg1671   2.265       .  S
C308        C660   1.479       .  S
Mg310      O1672   2.159       .  S
Mg310      O1684   2.309       .  S
Mg310      O1698   2.269       .  S
O311      Mg1671   2.287       .  S
O313       Mg315   2.141       .  S
O313       Mg321   2.174       .  S
O313        C348   1.234       .  S
C314        O327   1.235       .  S
C314        O351   1.270       .  A
C314        H353   1.081       .  S
Mg315       O344   2.165       .  S
Mg315       O355   2.268   1_545  S
Mg315       O326   2.294       .  S
Mg315      O1061   2.287   1_545  S
O316       Mg358   2.163       .  S
O316       Mg341   2.144       .  S
O316        C337   1.234       .  S
O317        C348   1.266       .  A
O317       Mg341   2.284       .  S
C318        O320   1.271       .  A
C318        O332   1.278       .  A
C318        C579   1.475       .  S
O319        C347   1.267       .  A
O319       Mg321   2.291       .  S
O320       Mg352   2.266       .  S
Mg321       O327   2.149       .  S
Mg321      O1037   2.277   1_545  S
Mg321      O1025   2.305   1_545  S
C322        O360   1.275       .  A
C322        O328   1.274       .  A
C322        C564   1.444       .  S
O323        C330   1.275       .  A
O323      Mg1023   2.298       .  S
H324        C337   1.081       .  S
C325        O339   1.235       .  S
C325        O340   1.270       .  A
C325        H350   1.081       .  S
O326        C349   1.269       .  A
O327       Mg341   2.168       .  S
O328       Mg358   2.303       .  S
C329        O342   1.273       .  A
C329        O334   1.269       .  A
C329        C572   1.475       .  S
C330       O1059   1.267       .  A
C330        C567   1.470       .  S
Mg331       O338   2.161       .  S
Mg331       O339   2.168       .  S
Mg331       O332   2.301       .  S
Mg331       O333   2.299       .  S
Mg331       O360   2.300       .  S
O333        C337   1.269       .  A
O334       Mg341   2.252       .  S
O335        C354   1.274       .  A
O335      Mg1023   2.287       .  S
O336        C356   1.278       .  A
O336       Mg352   2.317       .  S
O338       Mg352   2.178       .  S
O338        C349   1.236       .  S
O339       Mg358   2.160       .  S
O340       Mg352   2.302       .  S
Mg341       O357   2.244       .  S
O342       Mg358   2.295       .  S
H343        C348   1.081   1_565  S
O344       Mg352   2.139       .  S
O344        C347   1.233       .  S
H345        C347   1.081       .  S
H346        C349   1.081       .  S
O351       Mg358   2.300       .  S
C354        O359   1.273       .  A
C354        C565   1.437       .  S
O355        C356   1.271   1_565  A
C356        C575   1.481       .  S
O357       C1032   1.268       .  A
O359      Mg1017   2.292       .  S
C361        C591   1.489       .  S
C361        C362   1.410       .  A
C361        C366   1.403       .  A
C362        C603   1.480       .  S
C362        C363   1.404       .  A
C363        H368   1.083       .  S
C363        C364   1.401       .  A
C364        C571   1.477       .  S
C364        C365   1.421       .  A
C365        C559   1.495       .  S
C365        C366   1.407       .  A
C366        H367   1.084       .  S
C369        C588   1.492       .  S
C369        C370   1.425       .  A
C369        C374   1.410       .  A
C370        C612   1.498       .  S
C370        C371   1.410       .  A
C371        H376   1.084       .  S
C371        C372   1.402       .  A
C372        C568   1.476       .  S
C372        C373   1.406       .  A
C373        C555   1.483       .  S
C373        C374   1.399       .  A
C374        H375   1.084       .  S
O377       Mg379   2.146       .  S
O377       Mg385   2.155       .  S
O377        C412   1.236       .  S
C378        O391   1.235       .  S
C378        O415   1.270       .  A
C378        H417   1.081       .  S
Mg379       O408   2.179       .  S
Mg379       O419   2.258       .  S
Mg379       O390   2.290       .  S
Mg379      O1827   2.293       .  S
O380       Mg422   2.158       .  S
O380       Mg405   2.174       .  S
O380        C401   1.236       .  S
O381        C412   1.271       .  A
O381       Mg405   2.307       .  S
C382        O384   1.273       .  A
C382        O396   1.278       .  A
C382        C548   1.484       .  S
O383        C411   1.269       .  A
O383       Mg385   2.294       .  S
O384       Mg416   2.279       .  S
Mg385       O391   2.148       .  S
Mg385      O1803   2.268       .  S
Mg385      O1791   2.282       .  S
C386        O424   1.272       .  A
C386        O392   1.272       .  A
C386        C539   1.439       .  S
O387        C394   1.271       .  A
O387      Mg1789   2.289   1_455  S
H388        C401   1.081   1_565  S
C389        O403   1.233       .  S
C389        O404   1.268       .  A
C389        H414   1.081       .  S
O390        C413   1.268       .  A
O391       Mg405   2.147       .  S
O392      Mg1124   2.297       .  S
C393        O406   1.272   1_545  A
C393        O398   1.277       .  A
C393       C1246   1.476   1_545  S
C394       O1825   1.276   1_455  A
C394        C560   1.479       .  S
Mg395       O402   2.150       .  S
Mg395       O403   2.162       .  S
Mg395       O396   2.318       .  S
Mg395       O397   2.312   1_545  S
Mg395      O1126   2.277   1_545  S
O397        C401   1.272   1_565  A
O398       Mg405   2.325       .  S
O399        C418   1.268       .  A
O399      Mg1789   2.262   1_455  S
O400        C420   1.275       .  A
O400       Mg416   2.301       .  S
O402       Mg416   2.180       .  S
O402        C413   1.234       .  S
O403       Mg422   2.159       .  S
O404       Mg416   2.296       .  S
Mg405       O421   2.309       .  S
O406       Mg422   2.261   1_565  S
H407        C412   1.081       .  S
O408       Mg416   2.149       .  S
O408        C411   1.236       .  S
H409        C411   1.081       .  S
H410        C413   1.081       .  S
O415       Mg422   2.302       .  S
C418        O423   1.270       .  A
C418        C541   1.433       .  S
O419        C420   1.269       .  A
C420        C552   1.470       .  S
O421       C1798   1.277       .  A
Mg422      O1094   2.297   1_545  S
O423      Mg1783   2.287   1_455  S
O424      Mg1097   2.279       .  S
O425       Mg427   2.133       .  S
O425       Mg433   2.142       .  S
O425        C460   1.237       .  S
C426        O439   1.234       .  S
C426        O463   1.270       .  A
C426        H465   1.081       .  S
Mg427       O456   2.155       .  S
Mg427       O471   2.296       .  S
Mg427       O467   2.252       .  S
Mg427       O438   2.298       .  S
O428       Mg470   2.152       .  S
O428       Mg453   2.156       .  S
O428        C449   1.233       .  S
O429        C460   1.274       .  A
O429       Mg453   2.320       .  S
C430        O444   1.275       .  A
C430       O1836   1.266   1_455  A
C430        C556   1.468       .  S
O431        C459   1.269       .  A
O431       Mg433   2.296       .  S
O432       C1834   1.266       .  A
O432       Mg464   2.233       .  S
Mg433       O439   2.134       .  S
Mg433       O447   2.214       .  S
Mg433       O435   2.254       .  S
C434        O472   1.271       .  A
C434        O440   1.275       .  A
C434        C523   1.434       .  S
O435        C442   1.261       .  A
H436        C449   1.081       .  S
C437        O451   1.236       .  S
C437        O452   1.270       .  A
C437        H462   1.081       .  S
O438        C461   1.267       .  A
O439       Mg453   2.120       .  S
O440      Mg1874   2.307   1_455  S
C441        O454   1.275       .  A
C441        O446   1.271       .  A
C441        C535   1.472       .  S
C442        O469   1.270       .  A
C442        C532   1.467       .  S
Mg443       O450   2.148       .  S
Mg443       O451   2.177       .  S
Mg443       O445   2.303       .  S
Mg443      O1848   2.314       .  S
Mg443      O1876   2.262       .  S
O444      Mg1847   2.308   1_455  S
O445        C449   1.269       .  A
O446       Mg453   2.290       .  S
O447        C466   1.261       .  A
O448        C468   1.272       .  A
O448       Mg464   2.304       .  S
O450       Mg464   2.163       .  S
O450        C461   1.232       .  S
O451       Mg470   2.171       .  S
O452       Mg464   2.299       .  S
Mg453       O469   2.298       .  S
O454       Mg470   2.298       .  S
H455        C460   1.081       .  S
O456       Mg464   2.137       .  S
O456        C459   1.236       .  S
H457        C459   1.081       .  S
H458        C461   1.081       .  S
O463       Mg470   2.307       .  S
C466        O471   1.271       .  A
C466        C525   1.424       .  S
O467        C468   1.271       .  A
C468        C527   1.470       .  S
Mg470      O1844   2.303       .  S
O472      Mg1847   2.261   1_455  S
C473        C600   1.488       .  S
C473        C474   1.420       .  A
C473        C478   1.401       .  A
C474        C615   1.479       .  S
C474        C475   1.402       .  A
C475        H480   1.085       .  S
C475        C476   1.399       .  A
C476        C543   1.485       .  S
C476        C477   1.414       .  A
C477        C528   1.485       .  S
C477        C478   1.407       .  A
C478        H479   1.084       .  S
C481        C687   1.490       .  S
C481        C482   1.417       .  A
C481        C486   1.403       .  A
C482        C648   1.492   1_655  S
C482        C483   1.408       .  A
C483        H488   1.082       .  S
C483       C1888   1.409       .  A
C484        C536   1.494       .  S
C484        C485   1.419       .  A
C484       C1887   1.410       .  A
C485        C551   1.490       .  S
C485       C1890   1.403       .  A
C486        H487   1.084       .  S
C486       C1889   1.404       .  A
C489        C692   1.481       .  S
C489        C490   1.417       .  A
C489        C494   1.400       .  A
C490        C636   1.485       .  S
C490        C491   1.405       .  A
C491        H496   1.085       .  S
C491        C492   1.406       .  A
C492        C531   1.484       .  S
C492        C493   1.417       .  A
C493        C580   1.481       .  S
C493        C494   1.400       .  A
C494        H495   1.085       .  S
C497        C631   1.488       .  S
C497        C498   1.419       .  A
C497        C502   1.407       .  A
C498        C651   1.491       .  S
C498        C499   1.407       .  A
C499        H504   1.084       .  S
C499       C1202   1.406       .  A
C500        C576   1.489       .  S
C500        C501   1.414       .  A
C500       C1201   1.408   1_545  A
C501        C547   1.488       .  S
C501       C1204   1.406   1_545  A
C502        H503   1.084       .  S
C502       C1203   1.406       .  A
C505        C585   1.455       .  S
C505        C506   1.409   1_556  A
C505       C1914   1.413   1_455  A
C506        C609   1.450       .  S
C506       C1209   1.412   1_554  A
C507        C595   1.452       .  S
C507        C508   1.410   1_455  A
C507       C1208   1.417   1_545  A
C508       C1988   1.457   1_554  S
C508       C2615   1.406   1_544  A
C509       C1310   1.453       .  S
C509        C510   1.415       .  A
C509       C2614   1.406       .  A
C510        C597   1.449       .  S
C510       C1909   1.414   1_556  A
C511        C686   1.453       .  S
C511        C512   1.407       .  A
C511        C516   1.415       .  A
C512        C645   1.458       .  S
C512        C513   1.411       .  A
C513        C629   1.448       .  S
C513        C514   1.417       .  A
C514        C684   1.458       .  S
C514        C515   1.413       .  A
C515        C644   1.456       .  S
C515        C516   1.416       .  A
C516        C627   1.453       .  S
C517        C526   1.441       .  S
C517        C518   1.409       .  A
C517        C522   1.413       .  A
C518        C540   1.458       .  S
C518        C519   1.409       .  A
C519        C566   1.453       .  S
C519        C520   1.415       .  A
C520        C524   1.450       .  S
C520        C521   1.411       .  A
C521        C542   1.450       .  S
C521        C522   1.411       .  A
C522        C563   1.460       .  S
C523        C524   1.206       .  T
C525        C526   1.200       .  T
C527        C528   1.344       .  D
C527        H529   1.086       .  S
C528        H530   1.086       .  S
C531        C532   1.338       .  D
C531        H533   1.087       .  S
C532        H534   1.086       .  S
C535        C536   1.346       .  D
C535        H537   1.086       .  S
C536        H538   1.087       .  S
C539        C540   1.209       .  T
C541        C542   1.205       .  T
C543        C544   1.348       .  D
C543        H545   1.086       .  S
C544       C1095   1.477       .  S
C544       H1248   1.087       .  S
H546       C1246   1.087       .  S
C547        C548   1.347       .  D
C547        H549   1.087   1_545  S
C548        H550   1.086       .  S
C551        C552   1.349       .  D
C551        H553   1.087       .  S
C552        H554   1.086       .  S
C555        C556   1.343       .  D
C555        H557   1.086       .  S
C556        H558   1.085       .  S
C559        C560   1.344       .  D
C559        H561   1.087       .  S
C560       H1966   1.086       .  S
H562       C1964   1.086       .  S
C563        C564   1.212       .  T
C565        C566   1.208       .  T
C567        C568   1.341       .  D
C567       H1271   1.087       .  S
C568        H570   1.086       .  S
H569       C1269   1.087       .  S
C571        C572   1.351       .  D
C571        H573   1.087       .  S
C572        H574   1.087       .  S
C575        C576   1.345       .  D
C575        H577   1.087   1_545  S
C576        H578   1.085       .  S
C579        C580   1.344       .  D
C579        H581   1.086       .  S
C580        H582   1.088       .  S
C583        C584   1.206       .  T
C584       C1912   1.453       .  S
C585        C586   1.208   1_556  T
C587        C588   1.351       .  D
C587        H589   1.086       .  S
C588        H590   1.085       .  S
C591        C592   1.352       .  D
C591        H593   1.087       .  S
C592        H594   1.086       .  S
C595        C596   1.208       .  T
C597        C598   1.206       .  T
C599        C600   1.340       .  D
C599        H601   1.087       .  S
C600        H602   1.087       .  S
C603        C604   1.338       .  D
C603        H605   1.088       .  S
C604        H606   1.086       .  S
C607        C608   1.208       .  T
C608       C1211   1.455       .  S
C609        C610   1.206       .  T
C611        C612   1.351       .  D
C611        H613   1.086       .  S
C612        H614   1.085       .  S
C615        C616   1.338       .  D
C615        H617   1.087       .  S
C616        H618   1.086       .  S
C619        C620   1.345       .  D
C619        H621   1.087       .  S
C620        H622   1.086       .  S
C623        C624   1.349       .  D
C623        H625   1.087       .  S
C624        H626   1.086       .  S
C627        C628   1.208       .  T
C629        C630   1.205       .  T
C631        C632   1.348       .  D
C631        H633   1.087       .  S
C632        H634   1.087       .  S
C635        C636   1.338       .  D
C635        H637   1.087       .  S
C636        H638   1.087       .  S
C639        C640   1.339       .  D
C639        H641   1.086       .  S
C640        H642   1.088       .  S
C643        C644   1.209       .  T
C645        C646   1.209       .  T
C647        C648   1.346       .  D
C647        H649   1.086       .  S
C648        H650   1.085   1_455  S
C651        C652   1.345       .  D
C651        H653   1.087       .  S
C652        H654   1.087       .  S
C655        C656   1.353       .  D
C655        H657   1.086       .  S
C656        H658   1.087       .  S
C659        C660   1.349       .  D
C659        H661   1.086       .  S
C660        H662   1.087       .  S
C663        C664   1.350       .  D
C663        H665   1.085       .  S
C664        H666   1.086       .  S
C667        C668   1.339       .  D
C667        H669   1.087       .  S
C668        H670   1.087       .  S
C671        C672   1.341       .  D
C671        H673   1.086       .  S
C672        H674   1.085       .  S
C675        C676   1.340       .  D
C675        H677   1.086       .  S
C676        H678   1.087       .  S
C679        C680   1.350       .  D
C679        H681   1.087       .  S
C680        C810   1.476   1_545  S
C680       H1384   1.086       .  S
H682       C1382   1.086       .  S
C683        C684   1.211       .  T
C685        C686   1.207       .  T
C687        C688   1.346   1_655  D
C687        H689   1.085       .  S
C688        H690   1.087       .  S
C691        C692   1.343       .  D
C691        H693   1.086       .  S
C692        H694   1.088       .  S
C695        C696   1.340       .  D
C695       H2101   1.086       .  S
C696        H698   1.087       .  S
H697       C2099   1.087       .  S
C699        C700   1.351       .  D
C699        H701   1.087       .  S
C700        H702   1.085       .  S
O703       Mg705   2.155       .  S
O703       Mg711   2.152       .  S
O703        C738   1.235       .  S
C704        O717   1.235       .  S
C704        O741   1.269       .  A
C704        H743   1.081       .  S
Mg705       O734   2.154       .  S
Mg705      O2153   2.295   1_455  S
Mg705       O745   2.276       .  S
Mg705       O716   2.300       .  S
O706       Mg748   2.174       .  S
O706       Mg731   2.150       .  S
O706        C727   1.234       .  S
O707        C738   1.272       .  A
O707       Mg731   2.317       .  S
C708        O710   1.268       .  A
C708        O722   1.276       .  A
C708       C1393   1.469       .  S
O709        C737   1.270       .  A
O709       Mg711   2.300       .  S
O710       Mg742   2.251       .  S
Mg711       O717   2.167       .  S
Mg711      O2129   2.276   1_455  S
Mg711      O2117   2.267   1_455  S
C712        O750   1.274       .  A
C712        O718   1.273       .  A
C712       C1385   1.444       .  S
O713        C720   1.261       .  A
O713      Mg2115   2.246       .  S
H714        C727   1.081       .  S
C715        O729   1.236       .  S
C715        O730   1.270       .  A
C715        H740   1.081       .  S
O716        C739   1.268       .  A
O717       Mg731   2.161       .  S
O718       Mg748   2.301       .  S
C719        O732   1.270       .  A
C719        O724   1.277       .  A
C719       C1402   1.475       .  S
C720       O2151   1.275       .  A
C720       C1397   1.473       .  S
Mg721       O728   2.150       .  S
Mg721       O729   2.167       .  S
Mg721       O722   2.288       .  S
Mg721       O723   2.296       .  S
Mg721       O750   2.295       .  S
O723        C727   1.268       .  A
O724       Mg731   2.320       .  S
O725        C744   1.266       .  A
O725      Mg2115   2.255       .  S
O726        C746   1.273       .  A
O726       Mg742   2.302       .  S
O728       Mg742   2.165       .  S
O728        C739   1.233       .  S
O729       Mg748   2.146       .  S
O730       Mg742   2.295       .  S
Mg731       O747   2.290       .  S
O732       Mg748   2.256       .  S
H733        C738   1.081   1_655  S
O734       Mg742   2.146       .  S
O734        C737   1.236       .  S
H735        C737   1.081       .  S
H736        C739   1.081       .  S
O741       Mg748   2.299       .  S
C744        O749   1.269       .  A
C744       C1387   1.431       .  S
O745        C746   1.272       .  A
C746       C1390   1.472       .  S
O747       C2124   1.273       .  A
O749      Mg2109   2.286       .  S
C751       C1381   1.490       .  S
C751        C752   1.422       .  A
C751        C756   1.409       .  A
C752       C1401   1.496       .  S
C752        C753   1.407       .  A
C753        H758   1.083       .  S
C753        C754   1.400       .  A
C754       C1373   1.476       .  S
C754        C755   1.410       .  A
C755       C1377   1.487       .  S
C755        C756   1.403       .  A
C756        H757   1.084       .  S
C759       C1369   1.481       .  S
C759        C760   1.422       .  A
C759        C764   1.400       .  A
C760       C1398   1.493       .  S
C760        C761   1.404       .  A
C761        H766   1.083       .  S
C761        C762   1.411       .  A
C762       C1361   1.493       .  S
C762        C763   1.419       .  A
C763       C1366   1.490       .  S
C763        C764   1.400       .  A
C764        H765   1.085       .  S
O767       Mg769   2.156       .  S
O767       Mg775   2.157       .  S
O767        C802   1.236       .  S
C768        O781   1.235       .  S
C768        O805   1.270       .  A
C768        H807   1.081       .  S
Mg769       O798   2.155       .  S
Mg769       O809   2.256   1_565  S
Mg769       O780   2.306       .  S
O770       Mg812   2.158       .  S
O770       Mg795   2.166       .  S
O770        C791   1.235       .  S
O771        C802   1.272       .  A
O771       Mg795   2.311       .  S
C772       O2178   1.274       .  A
C772        O786   1.277       .  A
C772       C1357   1.484       .  S
O773        C801   1.271       .  A
O773       Mg775   2.306       .  S
O774       C2176   1.274   1_455  A
O774       Mg806   2.285       .  S
Mg775       O781   2.147       .  S
Mg775       O777   2.299       .  S
C776        O814   1.273       .  A
C776        O782   1.276       .  A
C776       C1348   1.443       .  S
O777        C784   1.272       .  A
H778        C791   1.081       .  S
C779        O793   1.235       .  S
C779        O794   1.269       .  A
C779        H804   1.081   1_455  S
O780        C803   1.270       .  A
O781       Mg795   2.145       .  S
O782      Mg2216   2.317       .  S
C783        O796   1.275       .  A
C783        O788   1.274       .  A
C783       C1349   1.479       .  S
C784        O811   1.274       .  A
C784       C1354   1.481       .  S
Mg785       O792   2.164       .  S
Mg785       O793   2.172       .  S
Mg785      O2190   2.309   1_455  S
Mg785       O787   2.303       .  S
Mg785      O2218   2.284   1_455  S
O786      Mg2189   2.323       .  S
O787        C791   1.270       .  A
O788       Mg795   2.307       .  S
O789        C808   1.266       .  A
O790        C810   1.277       .  A
O790       Mg806   2.335       .  S
O792       Mg806   2.172       .  S
O792        C803   1.234       .  S
O793       Mg812   2.169       .  S
O794       Mg806   2.299       .  S
Mg795       O811   2.301       .  S
O796       Mg812   2.290       .  S
H797        C802   1.081       .  S
O798       Mg806   2.167       .  S
O798        C801   1.236       .  S
H799        C801   1.081   1_545  S
H800        C803   1.081       .  S
O805       Mg812   2.302       .  S
C808        O813   1.271       .  A
C808       C1345   1.434       .  S
O809        C810   1.271   1_545  A
Mg812      O2186   2.301   1_455  S
O814      Mg2189   2.282       .  S
O815       Mg817   2.126       .  S
O815       Mg823   2.150       .  S
O815        C850   1.235       .  S
C816        O829   1.235       .  S
C816        O853   1.270       .  A
C816        H855   1.081       .  S
Mg817       O846   2.146       .  S
Mg817       O861   2.297       .  S
Mg817       O857   2.259       .  S
Mg817       O828   2.299       .  S
O818       Mg860   2.172       .  S
O818       Mg843   2.175       .  S
O818        C839   1.235       .  S
O819        C850   1.270       .  A
O819       Mg843   2.305       .  S
C820        O834   1.278       .  A
C820       C1370   1.468       .  S
O821        C849   1.267       .  A
O821       Mg823   2.282       .  S
O822       Mg854   2.206       .  S
Mg823       O829   2.164       .  S
Mg823       O837   2.260       .  S
Mg823       O825   2.248       .  S
C824        O862   1.274       .  A
C824        O830   1.276       .  A
C824       C1330   1.445       .  S
O825        C832   1.265       .  A
H826        C839   1.081       .  S
C827        O841   1.237       .  S
C827        O842   1.270       .  A
C827        H852   1.081   1_565  S
O828        C851   1.269       .  A
O829       Mg843   2.153       .  S
C831        O844   1.274       .  A
C831        O836   1.276       .  A
C831       C1334   1.481       .  S
C832        O859   1.276       .  A
C832       C1337   1.467       .  S
Mg833       O840   2.137       .  S
Mg833       O841   2.173       .  S
Mg833       O835   2.313       .  S
O835        C839   1.271       .  A
O836       Mg843   2.309       .  S
O837        C856   1.268       .  A
O838        C858   1.268       .  A
O838       Mg854   2.271       .  S
O840       Mg854   2.156       .  S
O840        C851   1.235       .  S
O841       Mg860   2.161       .  S
O842       Mg854   2.293       .  S
Mg843       O859   2.310       .  S
O844       Mg860   2.283       .  S
H845        C850   1.081       .  S
O846       Mg854   2.114       .  S
O846        C849   1.235       .  S
H847        C849   1.081       .  S
H848        C851   1.081       .  S
O853       Mg860   2.301       .  S
C856        O861   1.272       .  A
C856       C1332   1.434       .  S
O857        C858   1.271       .  A
C858       C1341   1.460       .  S
C863       C1358   1.495       .  S
C863        C864   1.412       .  A
C863        C868   1.405       .  A
C864       C1342   1.480       .  S
C864        C865   1.406       .  A
C865        H870   1.081       .  S
C865        C866   1.406       .  A
C866       C1325   1.494       .  S
C866        C867   1.415       .  A
C867       C1321   1.484       .  S
C867        C868   1.408       .  A
C868        H869   1.084       .  S
O871       Mg873   2.170   1_554  S
O871        C906   1.236       .  S
C872        O885   1.232       .  S
C872        O909   1.267       .  A
C872        H911   1.081       .  S
Mg873       O884   2.307       .  S
O874       Mg899   2.148       .  S
O874        C895   1.235       .  S
O875        C906   1.272       .  A
O875       Mg899   2.315       .  S
C876        O878   1.270       .  A
C876        O890   1.264       .  A
C876       C1318   1.465       .  S
O877        C905   1.269   1_554  A
O877       Mg879   2.298       .  S
O878       Mg910   2.270       .  S
Mg879       O885   2.156       .  S
Mg879       O893   2.259       .  S
C880        O918   1.267       .  A
C880        O886   1.273   1_556  A
C880       C1309   1.437       .  S
O881        C888   1.272       .  A
H882        C895   1.082       .  S
C883        O897   1.238       .  S
C883        O898   1.275       .  A
C883        H908   1.081   1_556  S
O884        C907   1.269       .  A
C887        O900   1.273       .  A
C887        O892   1.276       .  A
C887       C1365   1.476       .  S
C888        O915   1.272       .  A
C888       C1378   1.472       .  S
Mg889       O896   2.157       .  S
Mg889       O891   2.292       .  S
Mg889       O918   2.253       .  S
O891        C895   1.268   1_556  A
O892       Mg899   2.308       .  S
O893        C912   1.268       .  A
O894        C914   1.277       .  A
O894       Mg910   2.328       .  S
O896        C907   1.233       .  S
O897       Mg916   2.164   1_556  S
O898       Mg910   2.329       .  S
Mg899       O915   2.280       .  S
H901        C906   1.081   1_556  S
O902       Mg910   2.140       .  S
O902        C905   1.235       .  S
H903        C905   1.081       .  S
H904        C907   1.081       .  S
O909       Mg916   2.303       .  S
C912        O917   1.270   1_554  A
C912       C1312   1.431       .  S
O913        C914   1.275       .  A
C914       C1313   1.485       .  S
O919       Mg921   2.156   1_556  S
O919       Mg927   2.176       .  S
O919        C954   1.237       .  S
C920        O933   1.235       .  S
C920        O957   1.269       .  A
C920        H959   1.081       .  S
Mg921       O950   2.135       .  S
Mg921       O965   2.307       .  S
Mg921       O961   2.290       .  S
Mg921       O932   2.324       .  S
O922       Mg964   2.138       .  S
O922       Mg947   2.109       .  S
O922        C943   1.231       .  S
O923        C954   1.270       .  A
O923       Mg947   2.293       .  S
C924        O926   1.270       .  A
C924        O938   1.269       .  A
C924       C1374   1.468       .  S
O925        C953   1.270   1_556  A
O925       Mg927   2.313       .  S
O926       Mg958   2.264       .  S
Mg927       O933   2.132       .  S
Mg927       O941   2.264       .  S
Mg927       O929   2.330       .  S
C928        O966   1.270       .  A
C928        O934   1.272   1_554  A
C928       C1298   1.430       .  S
O929        C936   1.278       .  A
H930        C943   1.081       .  S
C931        O945   1.236       .  S
C931        O946   1.270       .  A
C931        H956   1.081   1_554  S
O932        C955   1.274       .  A
O933       Mg947   2.152       .  S
O934       Mg964   2.287       .  S
C935        O948   1.273       .  A
C935        O940   1.268       .  A
C935       C1306   1.463       .  S
C936        O963   1.262       .  A
C936       C1301   1.466       .  S
Mg937       O944   2.155       .  S
Mg937       O945   2.174       .  S
Mg937       O938   2.269       .  S
Mg937       O939   2.278       .  S
Mg937       O966   2.259       .  S
O939        C943   1.263   1_554  A
O940       Mg947   2.272       .  S
O941        C960   1.272       .  A
O942        C962   1.268       .  A
O942       Mg958   2.288       .  S
O944       Mg958   2.147       .  S
O944        C955   1.237       .  S
O945       Mg964   2.145   1_554  S
O946       Mg958   2.300       .  S
Mg947       O963   2.203       .  S
O948       Mg964   2.273       .  S
H949        C954   1.081   1_554  S
O950       Mg958   2.163       .  S
O950        C953   1.234       .  S
H951        C953   1.081       .  S
H952        C955   1.081       .  S
O957       Mg964   2.295       .  S
C960        O965   1.274   1_556  A
C960       C1300   1.435       .  S
O961        C962   1.271       .  A
C962       C1326   1.471       .  S
O967       Mg969   2.136   1_556  S
O967      Mg2379   2.165   1_455  S
O967       C1002   1.234       .  S
C968        O981   1.235       .  S
C968       O1005   1.270       .  A
C968       H1007   1.081       .  S
Mg969      O2402   2.172   1_455  S
Mg969      O2417   2.286   1_455  S
Mg969      O2413   2.244   1_455  S
Mg969       O980   2.290       .  S
O970      Mg2416   2.154   1_455  S
O970       Mg995   2.181       .  S
O970        C991   1.236       .  S
O971       C1002   1.267       .  A
O971       Mg995   2.288       .  S
C972        O974   1.274       .  A
C972        O986   1.277       .  A
C972       C1322   1.481       .  S
O973       C1001   1.268   1_556  A
O973       Mg975   2.291       .  S
O974      Mg1006   2.283       .  S
Mg975      O2371   2.167       .  S
Mg975       O981   2.149       .  S
Mg975       O989   2.268       .  S
Mg975      O2381   2.293       .  S
C976       O1014   1.271       .  A
C976        O982   1.274   1_554  A
C976       C1288   1.442       .  S
O977        C984   1.273       .  A
O977      Mg2379   2.287   1_455  S
H978        C991   1.081       .  S
C979        O993   1.234       .  S
C979        O994   1.269       .  A
C979       H1004   1.081   1_554  S
O980       C1003   1.268       .  A
O981      Mg2399   2.169       .  S
O982      Mg2416   2.311   1_455  S
C983        O996   1.273       .  A
C983        O988   1.275       .  A
C983       C1289   1.478       .  S
C984       O1011   1.277       .  A
C984       C1294   1.484       .  S
Mg985       O992   2.154       .  S
Mg985      O2397   2.163   1_455  S
Mg985      O2390   2.321   1_455  S
Mg985       O987   2.313       .  S
Mg985      O1014   2.278       .  S
O986      Mg2389   2.315       .  S
O987        C991   1.272   1_554  A
O988       Mg995   2.311       .  S
O989       C1008   1.271       .  A
O990       C1010   1.278       .  A
O990      Mg1006   2.322       .  S
O992      Mg2410   2.170   1_455  S
O992       C1003   1.235       .  S
O993      Mg2389   2.163       .  S
O993      Mg1012   2.170   1_554  S
O994      Mg1006   2.303       .  S
Mg995      O2385   2.166   1_455  S
Mg995      O1011   2.309       .  S
O996      Mg2416   2.283   1_455  S
H997       C1002   1.081       .  S
O998      Mg2373   2.172       .  S
O998      Mg1006   2.147       .  S
O998       C1001   1.234       .  S
H999       C1001   1.081       .  S
H1000      C1003   1.081       .  S
O1005     Mg1012   2.305       .  S
Mg1006     O2396   2.178       .  S
C1008      O1013   1.271   1_556  A
C1008      C1285   1.434       .  S
O1009      C1010   1.268       .  A
O1009     Mg2373   2.245       .  S
C1010      C1362   1.473       .  S
Mg1012     O2374   2.154       .  S
Mg1012     O2386   2.304       .  S
Mg1012     O2400   2.276       .  S
O1013     Mg2373   2.288       .  S
O1015     Mg1017   2.137       .  S
O1015     Mg1023   2.171       .  S
O1015      C1050   1.233       .  S
C1016      O1029   1.235       .  S
C1016      O1053   1.270       .  A
C1016      H1055   1.081       .  S
Mg1017     O1046   2.166       .  S
Mg1017     O1057   2.260       .  S
Mg1017     O1028   2.294       .  S
O1018     Mg1060   2.165       .  S
O1018     Mg1043   2.143       .  S
O1018      C1039   1.234       .  S
O1019      C1050   1.266       .  A
O1019     Mg1043   2.285       .  S
C1020      O1022   1.271       .  A
C1020      O1034   1.277       .  A
C1020      C1281   1.475       .  S
O1021      C1049   1.266       .  A
O1021     Mg1023   2.290       .  S
O1022     Mg1054   2.269       .  S
Mg1023     O1029   2.156       .  S
C1024      O1062   1.276       .  A
C1024      O1030   1.273       .  A
C1024      C1266   1.445       .  S
O1025      C1032   1.276   1_565  A
H1026      C1039   1.081       .  S
C1027      O1041   1.235       .  S
C1027      O1042   1.270       .  A
C1027      H1052   1.081       .  S
O1028      C1051   1.270       .  A
O1029     Mg1043   2.173       .  S
O1030     Mg1060   2.301       .  S
C1031      O1044   1.273       .  A
C1031      O1036   1.269       .  A
C1031      C1274   1.476       .  S
C1032      C1269   1.472   1_545  S
Mg1033     O1040   2.160       .  S
Mg1033     O1041   2.169       .  S
Mg1033     O1034   2.298       .  S
Mg1033     O1035   2.297       .  S
Mg1033     O1062   2.303       .  S
O1035      C1039   1.268       .  A
O1036     Mg1043   2.257       .  S
O1037      C1056   1.273       .  A
O1038      C1058   1.277       .  A
O1038     Mg1054   2.308       .  S
O1040     Mg1054   2.176       .  S
O1040      C1051   1.236       .  S
O1041     Mg1060   2.156       .  S
O1042     Mg1054   2.300       .  S
Mg1043     O1059   2.239       .  S
O1044     Mg1060   2.292       .  S
H1045      C1050   1.081       .  S
O1046     Mg1054   2.141       .  S
O1046      C1049   1.233       .  S
H1047      C1049   1.081       .  S
H1048      C1051   1.081       .  S
O1053     Mg1060   2.301       .  S
C1056      O1061   1.272       .  A
C1056      C1267   1.433       .  S
O1057      C1058   1.270       .  A
C1058      C1277   1.476       .  S
C1063      C1293   1.488       .  S
C1063      C1064   1.413       .  A
C1063      C1068   1.402       .  A
C1064      C1305   1.486       .  S
C1064      C1065   1.408       .  A
C1065      H1070   1.082       .  S
C1065      C1066   1.403       .  A
C1066      C1273   1.480       .  S
C1066      C1067   1.419       .  A
C1067      C1261   1.491       .  S
C1067      C1068   1.405       .  A
C1068      H1069   1.085       .  S
C1071      C1290   1.495       .  S
C1071      C1072   1.426       .  A
C1071      C1076   1.411       .  A
C1072      C1314   1.501       .  S
C1072      C1073   1.411       .  A
C1073      H1078   1.084       .  S
C1073      C1074   1.404       .  A
C1074      C1270   1.479       .  S
C1074      C1075   1.407       .  A
C1075      C1257   1.484       .  S
C1075      C1076   1.401       .  A
C1076      H1077   1.084       .  S
O1079     Mg1081   2.144       .  S
O1079     Mg1087   2.155       .  S
O1079      C1114   1.236       .  S
C1080      O1093   1.235       .  S
C1080      O1117   1.270       .  A
C1080      H1119   1.081       .  S
Mg1081     O1110   2.178       .  S
Mg1081     O2529   2.278       .  S
Mg1081     O1121   2.250       .  S
Mg1081     O1092   2.286       .  S
O1082     Mg1124   2.159       .  S
O1082     Mg1107   2.172       .  S
O1082      C1103   1.236       .  S
O1083      C1114   1.270       .  A
O1083     Mg1107   2.306       .  S
C1084      O1086   1.273       .  A
C1084      O1098   1.278       .  A
C1084      C1250   1.482       .  S
O1085      C1113   1.269       .  A
O1085     Mg1087   2.294       .  S
O1086     Mg1118   2.278       .  S
Mg1087     O1093   2.143       .  S
Mg1087     O2505   2.259       .  S
Mg1087     O2493   2.282       .  S
C1088      O1126   1.272       .  A
C1088      O1094   1.272       .  A
C1088      C1241   1.438       .  S
O1089      C1096   1.272       .  A
O1089     Mg2491   2.295   1_455  S
H1090      C1103   1.081       .  S
C1091      O1105   1.234       .  S
C1091      O1106   1.268       .  A
C1091      H1116   1.081       .  S
O1092      C1115   1.267       .  A
O1093     Mg1107   2.146       .  S
C1095      O1108   1.272       .  A
C1095      O1100   1.277       .  A
C1096      O2527   1.275   1_455  A
C1096      C1262   1.478       .  S
Mg1097     O1104   2.146       .  S
Mg1097     O1105   2.164       .  S
Mg1097     O1098   2.311       .  S
Mg1097     O1099   2.309       .  S
O1099      C1103   1.271       .  A
O1100     Mg1107   2.327       .  S
O1101      C1120   1.268       .  A
O1101     Mg2491   2.254   1_455  S
O1102      C1122   1.276       .  A
O1102     Mg1118   2.308       .  S
O1104     Mg1118   2.177       .  S
O1104      C1115   1.234       .  S
O1105     Mg1124   2.163       .  S
O1106     Mg1118   2.298       .  S
Mg1107     O1123   2.313       .  S
O1108     Mg1124   2.265       .  S
H1109      C1114   1.081       .  S
O1110     Mg1118   2.143       .  S
O1110      C1113   1.236       .  S
H1111      C1113   1.081       .  S
H1112      C1115   1.081       .  S
O1117     Mg1124   2.302       .  S
C1120      O1125   1.270       .  A
C1120      C1243   1.431       .  S
O1121      C1122   1.268       .  A
C1122      C1254   1.469       .  S
O1123      C2500   1.277       .  A
O1125     Mg2485   2.287   1_455  S
O1127     Mg1129   2.137       .  S
O1127     Mg1135   2.147       .  S
O1127      C1162   1.237       .  S
C1128      O1141   1.234       .  S
C1128      O1165   1.270       .  A
C1128      H1167   1.081       .  S
Mg1129     O1158   2.153       .  S
Mg1129     O1173   2.295       .  S
Mg1129     O1169   2.258       .  S
Mg1129     O1140   2.299       .  S
O1130     Mg1172   2.157       .  S
O1130     Mg1155   2.166       .  S
O1130      C1151   1.234       .  S
O1131      C1162   1.273       .  A
O1131     Mg1155   2.318       .  S
C1132      O2538   1.265       .  A
C1132      O1146   1.276   1_655  A
C1132      C1258   1.471   1_655  S
O1133      C1161   1.269       .  A
O1133     Mg1135   2.294       .  S
O1134      C2536   1.266       .  A
O1134     Mg1166   2.235       .  S
Mg1135     O1141   2.137       .  S
Mg1135     O1149   2.215       .  S
Mg1135     O1137   2.253       .  S
C1136      O1174   1.271       .  A
C1136      O1142   1.276       .  A
C1136      C1225   1.435       .  S
O1137      C1144   1.262       .  A
H1138      C1151   1.081       .  S
C1139      O1153   1.236       .  S
C1139      O1154   1.270       .  A
C1139      H1164   1.081       .  S
O1140      C1163   1.268       .  A
O1141     Mg1155   2.128       .  S
O1142     Mg2576   2.309   1_455  S
C1143      O1156   1.276       .  A
C1143      O1148   1.272       .  A
C1143      C1237   1.476       .  S
C1144      O1171   1.272       .  A
C1144      C1234   1.468       .  S
Mg1145     O1152   2.152       .  S
Mg1145     O1153   2.175       .  S
Mg1145     O2550   2.316       .  S
Mg1145     O1147   2.306       .  S
Mg1145     O2578   2.272       .  S
O1146     Mg2549   2.321   1_455  S
O1147      C1151   1.269       .  A
O1148     Mg1155   2.297       .  S
O1149      C1168   1.262       .  A
O1150      C1170   1.272       .  A
O1150     Mg1166   2.300       .  S
O1152     Mg1166   2.163       .  S
O1152      C1163   1.233       .  S
O1153     Mg1172   2.173       .  S
O1154     Mg1166   2.299       .  S
Mg1155     O1171   2.300       .  S
O1156     Mg1172   2.300       .  S
H1157      C1162   1.081       .  S
O1158     Mg1166   2.137       .  S
O1158      C1161   1.236       .  S
H1159      C1161   1.081       .  S
H1160      C1163   1.081       .  S
O1165     Mg1172   2.308       .  S
C1168      O1173   1.271       .  A
C1168      C1227   1.424       .  S
O1169      C1170   1.271       .  A
C1170      C1229   1.470       .  S
Mg1172     O2546   2.316       .  S
O1174     Mg2549   2.263   1_455  S
C1175      C1302   1.483       .  S
C1175      C1176   1.420       .  A
C1175      C1180   1.399       .  A
C1176      C1317   1.482       .  S
C1176      C1177   1.402       .  A
C1177      H1182   1.085       .  S
C1177      C1178   1.401       .  A
C1178      C1245   1.483       .  S
C1178      C1179   1.415       .  A
C1179      C1230   1.487       .  S
C1179      C1180   1.405       .  A
C1180      H1181   1.083       .  S
C1183      C1389   1.491       .  S
C1183      C1184   1.419       .  A
C1183      C1188   1.403       .  A
C1184      C1350   1.495       .  S
C1184      C1185   1.410       .  A
C1185      H1190   1.082       .  S
C1185      C2590   1.411       .  A
C1186      C1238   1.495       .  S
C1186      C2589   1.410       .  A
C1186      C1187   1.420       .  A
C1187      C1253   1.489       .  S
C1187      C2592   1.403       .  A
C1188      H1189   1.084       .  S
C1188      C2591   1.403       .  A
C1191      C1394   1.479       .  S
C1191      C1192   1.417       .  A
C1191      C1196   1.400       .  A
C1192      C1338   1.487       .  S
C1192      C1193   1.406       .  A
C1193      H1198   1.085       .  S
C1193      C1194   1.407       .  A
C1194      C1233   1.485       .  S
C1194      C1195   1.417       .  A
C1195      C1282   1.481       .  S
C1195      C1196   1.400       .  A
C1196      H1197   1.085       .  S
C1199      C1333   1.491       .  S
C1199      C1200   1.421       .  A
C1199      C1204   1.407       .  A
C1200      C1353   1.494       .  S
C1200      C1201   1.410       .  A
C1201      H1206   1.084       .  S
C1202      C1278   1.485       .  S
C1202      C1203   1.413       .  A
C1203      C1249   1.487       .  S
C1204      H1205   1.084       .  S
C1207      C1287   1.461       .  S
C1207      C1208   1.411       .  A
C1207      C2616   1.410   1_454  A
C1208      C1311   1.447   1_565  S
C1209      C1297   1.446   1_556  S
C1209      C1210   1.407   1_455  A
C1210      C2690   1.454       .  S
C1210      C1913   1.405       .  A
C1211      C1912   1.407   1_565  A
C1211      C1212   1.414       .  A
C1212      C1299   1.450       .  S
C1212      C2611   1.413   1_556  A
C1213      C1388   1.448       .  S
C1213      C1214   1.410       .  A
C1213      C1218   1.415       .  A
C1214      C1347   1.462       .  S
C1214      C1215   1.412       .  A
C1215      C1331   1.450       .  S
C1215      C1216   1.416       .  A
C1216      C1386   1.460       .  S
C1216      C1217   1.413       .  A
C1217      C1346   1.451       .  S
C1217      C1218   1.415       .  A
C1218      C1329   1.461       .  S
C1219      C1228   1.441       .  S
C1219      C1220   1.408       .  A
C1219      C1224   1.413       .  A
C1220      C1242   1.458       .  S
C1220      C1221   1.408       .  A
C1221      C1268   1.449       .  S
C1221      C1222   1.413       .  A
C1222      C1226   1.452       .  S
C1222      C1223   1.411       .  A
C1223      C1244   1.448       .  S
C1223      C1224   1.412       .  A
C1224      C1265   1.460       .  S
C1225      C1226   1.207       .  T
C1227      C1228   1.201       .  T
C1229      C1230   1.344       .  D
C1229      H1231   1.086       .  S
C1230      H1232   1.086       .  S
C1233      C1234   1.339       .  D
C1233      H1235   1.087       .  S
C1234      H1236   1.087       .  S
C1237      C1238   1.346       .  D
C1237      H1239   1.086       .  S
C1238      H1240   1.087       .  S
C1241      C1242   1.208       .  T
C1243      C1244   1.204       .  T
C1245      C1246   1.347       .  D
C1245      H1247   1.086       .  S
C1249      C1250   1.347       .  D
C1249      H1251   1.087       .  S
C1250      H1252   1.086       .  S
C1253      C1254   1.347       .  D
C1253      H1255   1.087       .  S
C1254      H1256   1.085       .  S
C1257      C1258   1.342       .  D
C1257      H1259   1.086       .  S
C1258      H1260   1.085       .  S
C1261      C1262   1.344       .  D
C1261      H1263   1.087       .  S
C1262      H2668   1.086       .  S
H1264      C2666   1.086       .  S
C1265      C1266   1.212       .  T
C1267      C1268   1.205       .  T
C1269      C1270   1.342       .  D
C1270      H1272   1.086       .  S
C1273      C1274   1.350       .  D
C1273      H1275   1.087       .  S
C1274      H1276   1.086       .  S
C1277      C1278   1.344       .  D
C1277      H1279   1.086       .  S
C1278      H1280   1.085       .  S
C1281      C1282   1.344       .  D
C1281      H1283   1.086       .  S
C1282      H1284   1.088       .  S
C1285      C1286   1.206       .  T
C1286      C2614   1.454       .  S
C1287      C1288   1.211       .  T
C1289      C1290   1.350       .  D
C1289      H1291   1.086       .  S
C1290      H1292   1.085       .  S
C1293      C1294   1.352       .  D
C1293      H1295   1.087       .  S
C1294      H1296   1.086       .  S
C1297      C1298   1.203       .  T
C1299      C1300   1.206       .  T
C1301      C1302   1.338       .  D
C1301      H1303   1.087       .  S
C1302      H1304   1.087       .  S
C1305      C1306   1.341       .  D
C1305      H1307   1.088       .  S
C1306      H1308   1.085       .  S
C1309      C1310   1.208       .  T
C1311      C1312   1.204   1_545  T
C1313      C1314   1.352       .  D
C1313      H1315   1.086       .  S
C1314      H1316   1.085       .  S
C1317      C1318   1.339       .  D
C1317      H1319   1.087       .  S
C1318      H1320   1.086       .  S
C1321      C1322   1.347       .  D
C1321      H1323   1.086       .  S
C1322      H1324   1.087       .  S
C1325      C1326   1.346       .  D
C1325      H1327   1.087       .  S
C1326      H1328   1.085       .  S
C1329      C1330   1.212       .  T
C1331      C1332   1.206       .  T
C1333      C1334   1.350       .  D
C1333      H1335   1.087       .  S
C1334      H1336   1.087   1_565  S
C1337      C1338   1.339       .  D
C1337      H1339   1.087       .  S
C1338      H1340   1.087       .  S
C1341      C1342   1.339       .  D
C1341      H1343   1.086       .  S
C1342      H1344   1.087       .  S
C1345      C1346   1.206       .  T
C1347      C1348   1.211       .  T
C1349      C1350   1.347   1_455  D
C1349      H1351   1.086       .  S
C1350      H1352   1.085       .  S
C1353      C1354   1.346       .  D
C1353      H1355   1.087       .  S
C1354      H1356   1.086       .  S
C1357      C1358   1.351       .  D
C1357      H1359   1.087       .  S
C1358      H1360   1.087       .  S
C1361      C1362   1.346       .  D
C1361      H1363   1.085       .  S
C1362      H1364   1.085       .  S
C1365      C1366   1.350       .  D
C1365      H1367   1.087       .  S
C1366      H1368   1.085       .  S
C1369      C1370   1.338       .  D
C1369      H1371   1.087       .  S
C1370      H1372   1.087       .  S
C1373      C1374   1.338       .  D
C1373      H1375   1.086       .  S
C1374      H1376   1.088       .  S
C1377      C1378   1.344       .  D
C1377      H1379   1.086       .  S
C1378      H1380   1.084       .  S
C1381      C1382   1.350       .  D
C1381      H1383   1.087       .  S
C1385      C1386   1.211       .  T
C1387      C1388   1.204       .  T
C1389      C1390   1.347   1_655  D
C1389      H1391   1.085       .  S
C1390      H1392   1.087       .  S
C1393      C1394   1.343       .  D
C1393      H1395   1.086       .  S
C1394      H1396   1.088       .  S
C1397      C1398   1.338       .  D
C1397      H2803   1.087       .  S
C1398      H1400   1.086       .  S
H1399      C2801   1.084       .  S
C1401      C1402   1.350       .  D
C1401      H1403   1.087       .  S
C1402      H1404   1.085       .  S
O1405     Mg1407   2.153       .  S
O1405     Mg1413   2.148       .  S
O1405      C1440   1.235       .  S
C1406      O1419   1.234       .  S
C1406      O1443   1.268       .  A
C1406      H1445   1.081       .  S
Mg1407     O1436   2.158       .  S
Mg1407     O1447   2.270       .  S
Mg1407     O1418   2.297       .  S
O1408     Mg1450   2.178       .  S
O1408     Mg1433   2.153       .  S
O1408      C1429   1.234       .  S
O1409      C1440   1.273       .  A
O1409     Mg1433   2.322       .  S
C1410      O1412   1.268       .  A
C1410      O1424   1.276       .  A
C1410      C2095   1.470       .  S
O1411      C1439   1.270       .  A
O1411     Mg1413   2.299       .  S
O1412     Mg1444   2.254       .  S
Mg1413     O1419   2.164       .  S
C1414      O1452   1.273       .  A
C1414      O1420   1.271       .  A
C1414      C2087   1.438       .  S
O1415      C1422   1.262   1_655  A
H1416      C1429   1.081       .  S
C1417      O1431   1.236       .  S
C1417      O1432   1.270       .  A
C1417      H1442   1.081       .  S
O1418      C1441   1.267       .  A
O1419     Mg1433   2.154       .  S
O1420     Mg1450   2.288       .  S
C1421      O1434   1.270       .  A
C1421      O1426   1.279       .  A
C1421      C2104   1.478       .  S
C1422      C2099   1.472   1_455  S
Mg1423     O1430   2.140       .  S
Mg1423     O1431   2.168       .  S
Mg1423     O1424   2.293       .  S
Mg1423     O1425   2.297       .  S
Mg1423     O1452   2.286       .  S
O1425      C1429   1.269       .  A
O1426     Mg1433   2.331       .  S
O1427      C1446   1.266       .  A
O1428      C1448   1.272       .  A
O1428     Mg1444   2.295       .  S
O1430     Mg1444   2.162       .  S
O1430      C1441   1.232       .  S
O1431     Mg1450   2.150       .  S
O1432     Mg1444   2.294       .  S
Mg1433     O1449   2.303       .  S
O1434     Mg1450   2.258       .  S
H1435      C1440   1.081       .  S
O1436     Mg1444   2.145       .  S
O1436      C1439   1.236       .  S
H1437      C1439   1.081       .  S
H1438      C1441   1.081       .  S
O1443     Mg1450   2.296       .  S
C1446      O1451   1.271       .  A
C1446      C2089   1.435       .  S
O1447      C1448   1.272       .  A
C1448      C2092   1.468       .  S
C1453      C2083   1.489       .  S
C1453      C1454   1.423       .  A
C1453      C1458   1.408       .  A
C1454      C2103   1.498       .  S
C1454      C1455   1.410       .  A
C1455      H1460   1.083       .  S
C1455      C1456   1.403       .  A
C1456      C2075   1.479       .  S
C1456      C1457   1.409       .  A
C1457      C2079   1.482       .  S
C1457      C1458   1.401       .  A
C1458      H1459   1.084       .  S
C1461      C2071   1.484       .  S
C1461      C1462   1.422       .  A
C1461      C1466   1.401       .  A
C1462      C2100   1.492       .  S
C1462      C1463   1.404       .  A
C1463      H1468   1.083       .  S
C1463      C1464   1.412       .  A
C1464      C2063   1.496       .  S
C1464      C1465   1.420       .  A
C1465      C2068   1.492       .  S
C1465      C1466   1.402       .  A
C1466      H1467   1.085       .  S
O1469     Mg1471   2.158       .  S
O1469     Mg1477   2.154       .  S
O1469      C1504   1.236       .  S
C1470      O1483   1.234       .  S
C1470      O1507   1.269       .  A
C1470      H1509   1.081       .  S
Mg1471     O1500   2.159       .  S
Mg1471     O2217   2.308       .  S
Mg1471     O1511   2.258       .  S
Mg1471     O1482   2.304       .  S
O1472     Mg1514   2.158       .  S
O1472     Mg1497   2.157       .  S
O1472      C1493   1.235       .  S
O1473      C1504   1.272       .  A
O1473     Mg1497   2.311       .  S
C1474      O1488   1.275       .  A
C1474      C2059   1.485       .  S
O1475      C1503   1.272       .  A
O1475     Mg1477   2.309       .  S
O1476     Mg1508   2.300       .  S
Mg1477     O1483   2.139       .  S
Mg1477     O2193   2.248       .  S
Mg1477     O1479   2.297       .  S
C1478      O1516   1.270       .  A
C1478      O1484   1.273       .  A
C1478      C2050   1.435       .  S
O1479      C1486   1.272       .  A
H1480      C1493   1.081       .  S
C1481      O1495   1.235       .  S
C1481      O1496   1.270       .  A
C1481      H1506   1.081       .  S
O1482      C1505   1.269       .  A
O1483     Mg1497   2.145       .  S
C1485      O1498   1.275       .  A
C1485      O1490   1.274       .  A
C1485      C2051   1.479       .  S
C1486      O1513   1.273       .  A
C1486      C2056   1.478       .  S
Mg1487     O1494   2.162       .  S
Mg1487     O1495   2.170       .  S
Mg1487     O1489   2.301       .  S
O1489      C1493   1.270       .  A
O1490     Mg1497   2.306       .  S
O1491      C1510   1.267       .  A
O1491     Mg2179   2.252   1_545  S
O1492      C1512   1.280       .  A
O1492     Mg1508   2.351       .  S
O1494     Mg1508   2.171       .  S
O1494      C1505   1.234       .  S
O1495     Mg1514   2.176       .  S
O1496     Mg1508   2.305       .  S
Mg1497     O1513   2.292       .  S
O1498     Mg1514   2.290       .  S
H1499      C1504   1.081       .  S
O1500     Mg1508   2.169       .  S
O1500      C1503   1.237       .  S
H1501      C1503   1.081       .  S
H1502      C1505   1.081       .  S
O1507     Mg1514   2.298       .  S
C1510      O1515   1.273       .  A
C1510      C2047   1.438       .  S
O1511      C1512   1.271       .  A
C1512      C2786   1.482       .  S
O1515     Mg2173   2.312   1_545  S
O1517     Mg1519   2.146       .  S
O1517     Mg1525   2.150       .  S
O1517      C1552   1.235       .  S
C1518      O1531   1.233       .  S
C1518      O1555   1.268       .  A
C1518      H1557   1.081       .  S
Mg1519     O1548   2.154       .  S
Mg1519     O1563   2.306       .  S
Mg1519     O1559   2.252       .  S
Mg1519     O1530   2.300       .  S
O1520     Mg1562   2.179       .  S
O1520     Mg1545   2.159       .  S
O1520      C1541   1.235       .  S
O1521      C1552   1.271       .  A
O1521     Mg1545   2.315       .  S
C1522      O2226   1.263   1_545  A
C1522      O1536   1.278       .  A
C1522      C2072   1.470       .  S
O1523      C1551   1.270       .  A
O1523     Mg1525   2.297       .  S
O1524      C2224   1.270       .  A
O1524     Mg1556   2.254       .  S
Mg1525     O1531   2.156       .  S
Mg1525     O1539   2.258       .  S
Mg1525     O1527   2.260       .  S
C1526      O1564   1.273       .  A
C1526      O1532   1.277       .  A
C1526      C2032   1.441       .  S
O1527      C1534   1.267       .  A
H1528      C1541   1.081       .  S
C1529      O1543   1.236       .  S
C1529      O1544   1.270       .  A
C1529      H1554   1.081       .  S
O1530      C1553   1.268       .  A
O1531     Mg1545   2.155       .  S
O1532     Mg2264   2.322   1_545  S
C1533      O1546   1.270       .  A
C1533      O1538   1.279       .  A
C1533      C2036   1.475       .  S
C1534      O1561   1.276       .  A
C1534      C2039   1.468       .  S
Mg1535     O1542   2.137       .  S
Mg1535     O1543   2.163       .  S
Mg1535     O2238   2.277       .  S
Mg1535     O1537   2.297       .  S
Mg1535     O2266   2.259       .  S
O1536     Mg2237   2.321   1_545  S
O1537      C1541   1.269       .  A
O1538     Mg1545   2.329       .  S
O1539      C1558   1.267       .  A
O1540      C1560   1.270       .  A
O1540     Mg1556   2.292       .  S
O1542     Mg1556   2.155       .  S
O1542      C1553   1.233       .  S
O1543     Mg1562   2.145       .  S
O1544     Mg1556   2.297       .  S
Mg1545     O1561   2.302       .  S
O1546     Mg1562   2.247       .  S
H1547      C1552   1.081       .  S
O1548     Mg1556   2.149       .  S
O1548      C1551   1.236       .  S
H1549      C1551   1.081       .  S
H1550      C1553   1.081       .  S
O1555     Mg1562   2.295       .  S
C1558      O1563   1.272       .  A
C1558      C2034   1.438       .  S
O1559      C1560   1.271       .  A
C1560      C2043   1.465       .  S
Mg1562     O2234   2.310       .  S
O1564     Mg2237   2.273   1_545  S
C1565      C2060   1.492       .  S
C1565      C1566   1.413       .  A
C1565      C1570   1.405       .  A
C1566      C2044   1.482       .  S
C1566      C1567   1.405       .  A
C1567      H1572   1.083       .  S
C1567      C1568   1.403       .  A
C1568      C2027   1.483       .  S
C1568      C1569   1.419       .  A
C1569      C2023   1.494       .  S
C1569      C1570   1.408       .  A
C1570      H1571   1.085       .  S
O1573     Mg1575   2.172   1_554  S
O1573     Mg2283   2.158   1_545  S
O1573      C1608   1.235       .  S
C1574      O1587   1.232       .  S
C1574      O1611   1.265       .  A
C1574      H1613   1.081       .  S
Mg1575     O2306   2.154   1_545  S
Mg1575     O2321   2.290   1_545  S
Mg1575     O2317   2.295   1_545  S
Mg1575     O1586   2.308       .  S
O1576     Mg2320   2.182   1_545  S
O1576     Mg1601   2.145       .  S
O1576      C1597   1.235       .  S
O1577      C1608   1.271       .  A
O1577     Mg1601   2.311       .  S
C1578      O1580   1.271       .  A
C1578      O1592   1.265       .  A
C1578      C2020   1.465       .  S
O1579      C1607   1.272   1_554  A
O1579     Mg1581   2.306       .  S
O1580     Mg1612   2.275       .  S
Mg1581     O2275   2.156       .  S
Mg1581     O1587   2.152       .  S
Mg1581     O1595   2.268       .  S
Mg1581     O2285   2.287       .  S
C1582      O1620   1.266   1_545  A
C1582      O1588   1.272   1_556  A
C1582      C2011   1.433   1_545  S
O1583      C1590   1.272       .  A
O1583     Mg2283   2.281   1_545  S
H1584      C1597   1.081       .  S
C1585      O1599   1.236       .  S
C1585      O1600   1.272       .  A
C1585      H1610   1.081   1_556  S
O1586      C1609   1.269       .  A
O1587     Mg2303   2.157       .  S
O1588     Mg2320   2.298   1_545  S
C1589      O1602   1.273       .  A
C1589      O1594   1.276       .  A
C1589      C2067   1.477       .  S
C1590      O1617   1.273       .  A
C1590      C2080   1.471       .  S
Mg1591     O1598   2.157       .  S
Mg1591     O2301   2.157   1_545  S
Mg1591     O2294   2.264   1_545  S
Mg1591     O1593   2.293       .  S
Mg1591     O1620   2.246   1_545  S
O1592     Mg2293   2.256       .  S
O1593      C1597   1.269   1_556  A
O1594     Mg1601   2.310       .  S
O1595      C1614   1.269       .  A
O1596      C1616   1.275       .  A
O1596     Mg1612   2.318       .  S
O1598     Mg2314   2.144   1_545  S
O1598      C1609   1.233       .  S
O1599     Mg2293   2.150       .  S
O1599     Mg1618   2.142   1_556  S
O1600     Mg1612   2.312       .  S
Mg1601     O2289   2.166   1_545  S
Mg1601     O1617   2.276       .  S
O1602     Mg2320   2.272   1_545  S
H1603      C1608   1.081   1_556  S
O1604     Mg2277   2.156       .  S
O1604     Mg1612   2.153       .  S
O1604      C1607   1.237       .  S
H1605      C1607   1.081       .  S
H1606      C1609   1.081       .  S
O1611     Mg1618   2.287       .  S
Mg1612     O2300   2.141       .  S
C1614      O1619   1.270   1_554  A
C1614      C2014   1.435       .  S
O1615      C1616   1.274       .  A
O1615     Mg2277   2.302       .  S
C1616      C2015   1.484       .  S
Mg1618     O2278   2.185       .  S
Mg1618     O2290   2.298       .  S
Mg1618     O2304   2.248       .  S
O1619     Mg2277   2.286       .  S
O1621     Mg1623   2.148   1_556  S
O1621     Mg1629   2.173       .  S
O1621      C1656   1.236       .  S
C1622      O1635   1.236       .  S
C1622      O1659   1.270       .  A
C1622      H1661   1.081       .  S
Mg1623     O1652   2.170       .  S
Mg1623     O1667   2.304       .  S
Mg1623     O1663   2.272       .  S
Mg1623     O1634   2.304       .  S
O1624     Mg1666   2.141       .  S
O1624     Mg1649   2.128       .  S
O1624      C1645   1.233       .  S
O1625      C1656   1.269       .  A
O1625     Mg1649   2.290       .  S
C1626      O1628   1.272       .  A
C1626      O1640   1.270       .  A
C1626      C2076   1.469       .  S
O1627      C1655   1.269   1_556  A
O1627     Mg1629   2.307       .  S
O1628     Mg1660   2.274       .  S
Mg1629     O1635   2.132       .  S
Mg1629     O1643   2.266       .  S
Mg1629     O1631   2.330       .  S
C1630      O1668   1.272       .  A
C1630      O1636   1.273   1_554  A
C1630      C2000   1.439       .  S
O1631      C1638   1.278       .  A
H1632      C1645   1.081       .  S
C1633      O1647   1.233       .  S
C1633      O1648   1.268       .  A
C1633      H1658   1.081   1_554  S
O1634      C1657   1.270       .  A
O1635     Mg1649   2.154       .  S
O1636     Mg1666   2.301       .  S
C1637      O1650   1.272       .  A
C1637      O1642   1.266       .  A
C1637      C2008   1.461       .  S
C1638      O1665   1.263       .  A
C1638      C2003   1.470       .  S
Mg1639     O1646   2.165       .  S
Mg1639     O1647   2.158       .  S
Mg1639     O1640   2.273       .  S
Mg1639     O1641   2.288       .  S
Mg1639     O1668   2.278       .  S
O1641      C1645   1.266   1_554  A
O1642     Mg1649   2.268       .  S
O1643      C1662   1.272       .  A
O1644      C1664   1.272       .  A
O1644     Mg1660   2.277       .  S
O1646     Mg1660   2.167       .  S
O1646      C1657   1.236       .  S
O1647     Mg1666   2.135   1_554  S
O1648     Mg1660   2.296       .  S
Mg1649     O1665   2.216       .  S
O1650     Mg1666   2.261       .  S
H1651      C1656   1.081   1_554  S
O1652     Mg1660   2.161       .  S
O1652      C1655   1.234       .  S
H1653      C1655   1.081       .  S
H1654      C1657   1.081       .  S
O1659     Mg1666   2.299       .  S
C1662      O1667   1.274   1_556  A
C1662      C2002   1.434       .  S
O1663      C1664   1.271       .  A
C1664      C2028   1.472       .  S
O1669     Mg1671   2.154   1_556  S
O1669      C1704   1.235       .  S
C1670      O1683   1.234       .  S
C1670      O1707   1.269       .  A
C1670      H1709   1.081       .  S
Mg1671     O1682   2.301       .  S
O1672     Mg1697   2.171       .  S
O1672      C1693   1.236       .  S
O1673      C1704   1.269       .  A
O1673     Mg1697   2.295       .  S
C1674      O1676   1.277       .  A
C1674      O1688   1.273       .  A
C1674      C2024   1.482       .  S
O1675      C1703   1.269   1_556  A
O1675     Mg1677   2.295       .  S
O1676     Mg1708   2.304       .  S
Mg1677     O1683   2.152       .  S
Mg1677     O1691   2.275       .  S
C1678      O1716   1.269       .  A
C1678      O1684   1.272   1_554  A
C1678      C1990   1.441       .  S
O1679      C1686   1.272       .  A
H1680      C1693   1.081       .  S
C1681      O1695   1.235       .  S
C1681      O1696   1.271       .  A
C1681      H1706   1.081   1_554  S
O1682      C1705   1.270       .  A
C1685      O1698   1.272       .  A
C1685      O1690   1.277       .  A
C1685      C1991   1.478       .  S
C1686      O1713   1.276       .  A
C1686      C1996   1.481       .  S
Mg1687     O1694   2.153       .  S
Mg1687     O1689   2.309       .  S
Mg1687     O1716   2.268       .  S
O1689      C1693   1.272   1_554  A
O1690     Mg1697   2.324       .  S
O1691      C1710   1.271       .  A
O1692      C1712   1.279       .  A
O1692     Mg1708   2.330       .  S
O1694      C1705   1.235       .  S
O1695     Mg1714   2.167   1_554  S
O1696     Mg1708   2.316       .  S
Mg1697     O1713   2.303       .  S
H1699      C1704   1.081   1_554  S
O1700     Mg1708   2.156       .  S
O1700      C1703   1.235       .  S
H1701      C1703   1.081       .  S
H1702      C1705   1.081       .  S
O1707     Mg1714   2.302       .  S
C1710      O1715   1.271   1_556  A
C1710      C1987   1.437       .  S
O1711      C1712   1.268       .  A
C1712      C2064   1.474       .  S
O1717     Mg1719   2.140       .  S
O1717     Mg1725   2.173       .  S
O1717      C1752   1.233       .  S
C1718      O1731   1.235       .  S
C1718      O1755   1.270       .  A
C1718      H1757   1.081       .  S
Mg1719     O1748   2.164       .  S
Mg1719     O2465   2.286   1_545  S
Mg1719     O1759   2.268   1_545  S
Mg1719     O1730   2.293       .  S
O1720     Mg1762   2.161       .  S
O1720     Mg1745   2.143       .  S
O1720      C1741   1.234       .  S
O1721      C1752   1.266       .  A
O1721     Mg1745   2.283       .  S
C1722      O1724   1.271       .  A
C1722      O1736   1.278       .  A
C1722      C1983   1.476       .  S
O1723      C1751   1.267       .  A
O1723     Mg1725   2.290       .  S
O1724     Mg1756   2.268       .  S
Mg1725     O1731   2.143       .  S
Mg1725     O2441   2.268   1_545  S
Mg1725     O2429   2.303   1_545  S
C1726      O1764   1.274       .  A
C1726      O1732   1.273       .  A
C1726      C1968   1.439       .  S
O1727      C1734   1.276       .  A
O1727     Mg2427   2.308       .  S
H1728      C1741   1.081       .  S
C1729      O1743   1.235       .  S
C1729      O1744   1.270       .  A
C1729      H1754   1.081       .  S
O1730      C1753   1.269       .  A
O1731     Mg1745   2.168       .  S
O1732     Mg1762   2.295       .  S
C1733      O1746   1.273       .  A
C1733      O1738   1.268       .  A
C1733      C1976   1.474       .  S
C1734      O2463   1.266       .  A
C1734      C1971   1.471       .  S
Mg1735     O1742   2.155       .  S
Mg1735     O1743   2.171       .  S
Mg1735     O1736   2.305       .  S
Mg1735     O1737   2.299       .  S
Mg1735     O1764   2.290       .  S
O1737      C1741   1.268       .  A
O1738     Mg1745   2.249       .  S
O1739      C1758   1.274       .  A
O1739     Mg2427   2.280       .  S
O1740      C1760   1.277       .  A
O1740     Mg1756   2.313       .  S
O1742     Mg1756   2.175       .  S
O1742      C1753   1.236       .  S
O1743     Mg1762   2.160       .  S
O1744     Mg1756   2.301       .  S
Mg1745     O1761   2.244       .  S
O1746     Mg1762   2.292       .  S
H1747      C1752   1.081   1_565  S
O1748     Mg1756   2.139       .  S
O1748      C1751   1.233       .  S
H1749      C1751   1.081       .  S
H1750      C1753   1.081       .  S
O1755     Mg1762   2.300       .  S
C1758      O1763   1.274       .  A
C1758      C1969   1.438       .  S
O1759      C1760   1.271   1_565  A
C1760      C1979   1.480       .  S
O1761      C2436   1.267       .  A
O1763     Mg2421   2.302       .  S
C1765      C1995   1.488       .  S
C1765      C1766   1.410       .  A
C1765      C1770   1.402       .  A
C1766      C2007   1.480       .  S
C1766      C1767   1.404       .  A
C1767      H1772   1.083       .  S
C1767      C1768   1.402       .  A
C1768      C1975   1.479       .  S
C1768      C1769   1.421       .  A
C1769      C1963   1.492       .  S
C1769      C1770   1.406       .  A
C1770      H1771   1.085       .  S
C1773      C1992   1.493       .  S
C1773      C1774   1.426       .  A
C1773      C1778   1.410       .  A
C1774      C2016   1.502       .  S
C1774      C1775   1.412       .  A
C1775      H1780   1.083       .  S
C1775      C1776   1.404       .  A
C1776      C1972   1.479       .  S
C1776      C1777   1.407       .  A
C1777      C1959   1.484       .  S
C1777      C1778   1.400       .  A
C1778      H1779   1.084       .  S
O1781     Mg1783   2.151       .  S
O1781     Mg1789   2.154       .  S
O1781      C1816   1.236       .  S
C1782      O1795   1.234       .  S
C1782      O1819   1.270       .  A
C1782      H1821   1.081       .  S
Mg1783     O1812   2.179       .  S
Mg1783     O1823   2.263       .  S
Mg1783     O1794   2.289       .  S
O1784     Mg1826   2.162       .  S
O1784     Mg1809   2.177       .  S
O1784      C1805   1.236       .  S
O1785      C1816   1.272       .  A
O1785     Mg1809   2.312       .  S
C1786      O1788   1.273       .  A
C1786      O1800   1.278       .  A
C1786      C1952   1.482       .  S
O1787      C1815   1.269       .  A
O1787     Mg1789   2.294       .  S
O1788     Mg1820   2.276       .  S
Mg1789     O1795   2.147       .  S
C1790      O1828   1.268       .  A
C1790      O1796   1.270       .  A
C1790      C1943   1.437       .  S
O1791      C1798   1.270       .  A
H1792      C1805   1.081   1_565  S
C1793      O1807   1.233       .  S
C1793      O1808   1.267       .  A
C1793      H1818   1.081       .  S
O1794      C1817   1.267       .  A
O1795     Mg1809   2.138       .  S
O1796     Mg2528   2.295       .  S
C1797      O1810   1.271   1_545  A
C1797      O1802   1.277       .  A
C1797      C2650   1.475   1_545  S
C1798      C1964   1.477       .  S
Mg1799     O1806   2.153       .  S
Mg1799     O1807   2.161       .  S
Mg1799     O1800   2.312       .  S
Mg1799     O1801   2.312       .  S
Mg1799     O2530   2.287   1_545  S
O1801      C1805   1.272       .  A
O1802     Mg1809   2.324       .  S
O1803      C1822   1.269       .  A
O1804      C1824   1.275       .  A
O1804     Mg1820   2.301       .  S
O1806     Mg1820   2.181       .  S
O1806      C1817   1.234       .  S
O1807     Mg1826   2.156       .  S
O1808     Mg1820   2.295       .  S
Mg1809     O1825   2.310       .  S
O1810     Mg1826   2.255   1_565  S
H1811      C1816   1.081   1_455  S
O1812     Mg1820   2.147       .  S
O1812      C1815   1.236       .  S
H1813      C1815   1.081       .  S
H1814      C1817   1.081       .  S
O1819     Mg1826   2.304       .  S
C1822      O1827   1.271       .  A
C1822      C1945   1.437       .  S
O1823      C1824   1.270       .  A
C1824      C1956   1.472       .  S
Mg1826     O2498   2.305   1_545  S
O1828     Mg2501   2.262       .  S
O1829     Mg1831   2.138       .  S
O1829     Mg1837   2.148       .  S
O1829      C1864   1.238       .  S
C1830      O1843   1.235       .  S
C1830      O1867   1.271       .  A
C1830      H1869   1.081       .  S
Mg1831     O1860   2.155       .  S
Mg1831     O1875   2.299       .  S
Mg1831     O1871   2.256       .  S
Mg1831     O1842   2.298       .  S
O1832     Mg1874   2.143       .  S
O1832     Mg1857   2.152       .  S
O1832      C1853   1.233       .  S
O1833      C1864   1.274       .  A
O1833     Mg1857   2.321       .  S
C1834      O1848   1.276       .  A
C1834      C1960   1.471       .  S
O1835      C1863   1.268       .  A
O1835     Mg1837   2.293       .  S
O1836     Mg1868   2.229       .  S
Mg1837     O1843   2.145       .  S
Mg1837     O1851   2.227       .  S
Mg1837     O1839   2.253       .  S
C1838      O1876   1.271       .  A
C1838      O1844   1.275       .  A
C1838      C1927   1.434       .  S
O1839      C1846   1.261       .  A
H1840      C1853   1.081       .  S
C1841      O1855   1.237       .  S
C1841      O1856   1.271       .  A
C1841      H1866   1.081   1_655  S
O1842      C1865   1.267       .  A
O1843     Mg1857   2.122       .  S
C1845      O1858   1.275       .  A
C1845      O1850   1.271       .  A
C1845      C1939   1.476       .  S
C1846      O1873   1.269       .  A
C1846      C1936   1.466       .  S
Mg1847     O1854   2.149       .  S
Mg1847     O1855   2.180       .  S
Mg1847     O1849   2.301       .  S
O1849      C1853   1.268       .  A
O1850     Mg1857   2.296       .  S
O1851      C1870   1.263       .  A
O1852      C1872   1.273       .  A
O1852     Mg1868   2.306       .  S
O1854     Mg1868   2.161       .  S
O1854      C1865   1.232       .  S
O1855     Mg1874   2.171       .  S
O1856     Mg1868   2.300       .  S
Mg1857     O1873   2.287       .  S
O1858     Mg1874   2.307       .  S
H1859      C1864   1.081       .  S
O1860     Mg1868   2.134       .  S
O1860      C1863   1.235       .  S
H1861      C1863   1.081       .  S
H1862      C1865   1.081       .  S
O1867     Mg1874   2.314       .  S
C1870      O1875   1.271       .  A
C1870      C1929   1.429       .  S
O1871      C1872   1.271       .  A
C1872      C1931   1.471       .  S
C1877      C2004   1.486       .  S
C1877      C1878   1.421       .  A
C1877      C1882   1.401       .  A
C1878      C2019   1.482       .  S
C1878      C1879   1.402       .  A
C1879      H1884   1.085       .  S
C1879      C1880   1.400       .  A
C1880      C1947   1.483       .  S
C1880      C1881   1.415       .  A
C1881      C1932   1.488       .  S
C1881      C1882   1.406       .  A
C1882      H1883   1.083       .  S
C1885      C2091   1.486       .  S
C1885      C1886   1.417       .  A
C1885      C1890   1.403       .  A
C1886      C2052   1.494       .  S
C1886      C1887   1.407       .  A
C1887      H1892   1.083       .  S
C1888      C1940   1.499       .  S
C1888      C1889   1.420       .  A
C1889      C1955   1.488       .  S
C1890      H1891   1.084       .  S
C1893      C2096   1.480       .  S
C1893      C1894   1.416       .  A
C1893      C1898   1.402       .  A
C1894      C2040   1.484       .  S
C1894      C1895   1.404       .  A
C1895      H1900   1.085       .  S
C1895      C1896   1.405       .  A
C1896      C1935   1.481       .  S
C1896      C1897   1.417       .  A
C1897      C1984   1.484       .  S
C1897      C1898   1.401       .  A
C1898      H1899   1.085       .  S
C1901      C2035   1.493       .  S
C1901      C1902   1.418       .  A
C1901      C1906   1.409       .  A
C1902      C2055   1.490       .  S
C1902      C1903   1.406       .  A
C1903      H1908   1.084       .  S
C1903      C2606   1.406       .  A
C1904      C1980   1.488       .  S
C1904      C2605   1.407   1_545  A
C1904      C1905   1.414       .  A
C1905      C1951   1.486       .  S
C1905      C2608   1.406   1_545  A
C1906      H1907   1.084       .  S
C1906      C2607   1.406       .  A
C1909      C1989   1.459       .  S
C1909      C1910   1.411       .  A
C1910      C2013   1.451       .  S
C1910      C2613   1.415       .  A
C1911      C1999   1.454       .  S
C1911      C2612   1.416   1_545  A
C1911      C1912   1.412   1_554  A
C1913      C2714   1.450       .  S
C1913      C1914   1.414       .  A
C1914      C2001   1.449       .  S
C1915      C2090   1.451       .  S
C1915      C1916   1.408       .  A
C1915      C1920   1.415       .  A
C1916      C2049   1.455       .  S
C1916      C1917   1.410       .  A
C1917      C2033   1.454       .  S
C1917      C1918   1.416       .  A
C1918      C2088   1.454       .  S
C1918      C1919   1.414       .  A
C1919      C2048   1.456       .  S
C1919      C1920   1.415       .  A
C1920      C2031   1.456       .  S
C1921      C1930   1.446       .  S
C1921      C1922   1.408       .  A
C1921      C1926   1.413       .  A
C1922      C1944   1.456       .  S
C1922      C1923   1.410       .  A
C1923      C1970   1.453       .  S
C1923      C1924   1.416       .  A
C1924      C1928   1.450       .  S
C1924      C1925   1.411       .  A
C1925      C1946   1.454       .  S
C1925      C1926   1.411       .  A
C1926      C1967   1.455       .  S
C1927      C1928   1.206       .  T
C1929      C1930   1.203       .  T
C1931      C1932   1.345       .  D
C1931      H1933   1.086       .  S
C1932      H1934   1.086       .  S
C1935      C1936   1.337       .  D
C1935      H1937   1.087       .  S
C1936      H1938   1.087       .  S
C1939      C1940   1.349       .  D
C1939      H1941   1.085       .  S
C1940      H1942   1.087       .  S
C1943      C1944   1.207       .  T
C1945      C1946   1.207       .  T
C1947      C1948   1.348       .  D
C1947      H1949   1.086       .  S
C1948      C2499   1.477       .  S
C1948      H2652   1.087       .  S
H1950      C2650   1.087       .  S
C1951      C1952   1.347       .  D
C1951      H1953   1.087   1_545  S
C1952      H1954   1.086       .  S
C1955      C1956   1.348       .  D
C1955      H1957   1.087       .  S
C1956      H1958   1.086   1_655  S
C1959      C1960   1.343       .  D
C1959      H1961   1.086       .  S
C1960      H1962   1.085       .  S
C1963      C1964   1.342       .  D
C1963      H1965   1.087       .  S
C1967      C1968   1.209       .  T
C1969      C1970   1.208       .  T
C1971      C1972   1.341       .  D
C1971      H2675   1.087       .  S
C1972      H1974   1.086       .  S
H1973      C2673   1.086       .  S
C1975      C1976   1.351       .  D
C1975      H1977   1.087       .  S
C1976      H1978   1.086       .  S
C1979      C1980   1.345       .  D
C1979      H1981   1.087   1_545  S
C1980      H1982   1.085       .  S
C1983      C1984   1.345       .  D
C1983      H1985   1.086       .  S
C1984      H1986   1.087       .  S
C1987      C1988   1.208       .  T
C1989      C1990   1.210       .  T
C1991      C1992   1.351       .  D
C1991      H1993   1.086       .  S
C1992      H1994   1.085       .  S
C1995      C1996   1.352       .  D
C1995      H1997   1.087       .  S
C1996      H1998   1.087       .  S
C1999      C2000   1.209       .  T
C2001      C2002   1.206       .  T
C2003      C2004   1.340       .  D
C2003      H2005   1.087       .  S
C2004      H2006   1.087       .  S
C2007      C2008   1.338       .  D
C2007      H2009   1.088       .  S
C2008      H2010   1.085       .  S
C2011      C2012   1.205       .  T
C2012      C2615   1.449       .  S
C2013      C2014   1.206       .  T
C2015      C2016   1.352       .  D
C2015      H2017   1.086       .  S
C2016      H2018   1.085       .  S
C2019      C2020   1.338       .  D
C2019      H2021   1.087       .  S
C2020      H2022   1.086       .  S
C2023      C2024   1.345       .  D
C2023      H2025   1.087       .  S
C2024      H2026   1.086       .  S
C2027      C2028   1.349       .  D
C2027      H2029   1.087       .  S
C2028      H2030   1.086       .  S
C2031      C2032   1.210       .  T
C2033      C2034   1.208       .  T
C2035      C2036   1.347       .  D
C2035      H2037   1.087       .  S
C2036      H2038   1.086       .  S
C2039      C2040   1.339       .  D
C2039      H2041   1.087       .  S
C2040      H2042   1.087       .  S
C2043      C2044   1.342       .  D
C2043      H2045   1.086       .  S
C2044      H2046   1.088       .  S
C2047      C2048   1.208       .  T
C2049      C2050   1.207       .  T
C2051      C2052   1.347       .  D
C2051      H2053   1.086       .  S
C2052      H2054   1.085       .  S
C2055      C2056   1.345       .  D
C2055      H2057   1.087       .  S
C2056      H2058   1.087       .  S
C2059      C2060   1.352       .  D
C2059      H2061   1.086       .  S
C2060      H2062   1.087       .  S
C2063      C2064   1.347       .  D
C2063      H2065   1.085       .  S
C2064      H2066   1.085       .  S
C2067      C2068   1.351       .  D
C2067      H2069   1.087       .  S
C2068      H2070   1.085       .  S
C2071      C2072   1.339       .  D
C2071      H2073   1.087       .  S
C2072      H2074   1.087       .  S
C2075      C2076   1.340       .  D
C2075      H2077   1.086       .  S
C2076      H2078   1.086       .  S
C2079      C2080   1.341       .  D
C2079      H2081   1.086       .  S
C2080      H2082   1.085       .  S
C2083      C2084   1.350       .  D
C2083      H2085   1.087       .  S
C2084      C2214   1.478   1_545  S
C2084      H2788   1.086       .  S
H2086      C2786   1.086       .  S
C2087      C2088   1.208       .  T
C2089      C2090   1.206       .  T
C2091      C2092   1.345       .  D
C2091      H2093   1.085       .  S
C2092      H2094   1.087       .  S
C2095      C2096   1.344       .  D
C2095      H2097   1.086       .  S
C2096      H2098   1.088       .  S
C2099      C2100   1.338       .  D
C2100      H2102   1.086   1_655  S
C2103      C2104   1.350       .  D
C2103      H2105   1.087       .  S
C2104      H2106   1.085       .  S
O2107     Mg2109   2.138       .  S
O2107     Mg2115   2.142       .  S
O2107      C2142   1.237       .  S
C2108      O2121   1.233       .  S
C2108      O2145   1.268       .  A
C2108      H2147   1.081       .  S
Mg2109     O2138   2.180       .  S
Mg2109     O2149   2.254       .  S
Mg2109     O2120   2.284       .  S
O2110     Mg2152   2.182       .  S
O2110     Mg2135   2.166       .  S
O2110      C2131   1.236       .  S
O2111      C2142   1.274       .  A
O2111     Mg2135   2.328       .  S
C2112      O2114   1.271       .  A
C2112      O2126   1.277       .  A
C2112      C2797   1.473       .  S
O2113      C2141   1.270       .  A
O2113     Mg2115   2.294       .  S
O2114     Mg2146   2.262       .  S
Mg2115     O2121   2.159       .  S
C2116      O2154   1.273       .  A
C2116      O2122   1.273       .  A
C2116      C2789   1.443       .  S
O2117      C2124   1.269   1_655  A
H2118      C2131   1.081       .  S
C2119      O2133   1.234       .  S
C2119      O2134   1.268       .  A
C2119      H2144   1.081       .  S
O2120      C2143   1.265       .  A
O2121     Mg2135   2.147       .  S
O2122     Mg2152   2.299       .  S
C2123      O2136   1.270       .  A
C2123      O2128   1.279       .  A
C2123      C2806   1.475       .  S
C2124      C2801   1.467   1_455  S
Mg2125     O2132   2.147       .  S
Mg2125     O2133   2.157       .  S
Mg2125     O2126   2.295       .  S
Mg2125     O2127   2.307       .  S
Mg2125     O2154   2.293       .  S
O2127      C2131   1.271       .  A
O2128     Mg2135   2.331       .  S
O2129      C2148   1.269       .  A
O2130      C2150   1.276       .  A
O2130     Mg2146   2.300       .  S
O2132     Mg2146   2.180       .  S
O2132      C2143   1.232       .  S
O2133     Mg2152   2.147       .  S
O2134     Mg2146   2.291       .  S
Mg2135     O2151   2.335       .  S
O2136     Mg2152   2.252       .  S
H2137      C2142   1.081       .  S
O2138     Mg2146   2.135       .  S
O2138      C2141   1.237       .  S
H2139      C2141   1.081       .  S
H2140      C2143   1.081       .  S
O2145     Mg2152   2.297       .  S
C2148      O2153   1.271       .  A
C2148      C2791   1.440       .  S
O2149      C2150   1.270       .  A
C2150      C2794   1.470       .  S
C2155      C2785   1.491       .  S
C2155      C2156   1.422       .  A
C2155      C2160   1.409       .  A
C2156      C2805   1.495       .  S
C2156      C2157   1.408       .  A
C2157      H2162   1.084       .  S
C2157      C2158   1.402       .  A
C2158      C2777   1.479       .  S
C2158      C2159   1.411       .  A
C2159      C2781   1.487       .  S
C2159      C2160   1.405       .  A
C2160      H2161   1.084       .  S
C2163      C2773   1.475       .  S
C2163      C2164   1.409       .  A
C2163      C2168   1.399       .  A
C2164      C2802   1.486       .  S
C2164      C2165   1.402       .  A
C2165      H2170   1.084       .  S
C2165      C2166   1.412       .  A
C2166      C2765   1.494       .  S
C2166      C2167   1.424       .  A
C2167      C2770   1.495       .  S
C2167      C2168   1.405       .  A
C2168      H2169   1.084       .  S
O2171     Mg2173   2.154       .  S
O2171     Mg2179   2.158       .  S
O2171      C2206   1.237       .  S
C2172      O2185   1.235       .  S
C2172      O2209   1.270       .  A
C2172      H2211   1.081       .  S
Mg2173     O2202   2.158       .  S
Mg2173     O2213   2.251   1_565  S
Mg2173     O2184   2.306       .  S
O2174     Mg2216   2.157       .  S
O2174     Mg2199   2.168       .  S
O2174      C2195   1.235       .  S
O2175      C2206   1.272       .  A
O2175     Mg2199   2.311       .  S
C2176      O2190   1.275       .  A
C2176      C2761   1.479       .  S
O2177      C2205   1.270       .  A
O2177     Mg2179   2.304       .  S
O2178     Mg2210   2.289       .  S
Mg2179     O2185   2.142       .  S
Mg2179     O2181   2.302       .  S
C2180      O2218   1.273       .  A
C2180      O2186   1.273       .  A
C2180      C2752   1.440       .  S
O2181      C2188   1.271       .  A
H2182      C2195   1.081       .  S
C2183      O2197   1.235       .  S
C2183      O2198   1.270       .  A
C2183      H2208   1.081       .  S
O2184      C2207   1.270       .  A
O2185     Mg2199   2.138       .  S
C2187      O2200   1.276       .  A
C2187      O2192   1.272       .  A
C2187      C2753   1.477       .  S
C2188      O2215   1.273       .  A
C2188      C2758   1.479       .  S
Mg2189     O2196   2.164       .  S
Mg2189     O2197   2.172       .  S
Mg2189     O2191   2.305       .  S
O2191      C2195   1.270       .  A
O2192     Mg2199   2.297       .  S
O2193      C2212   1.266       .  A
O2194      C2214   1.278       .  A
O2194     Mg2210   2.342       .  S
O2196     Mg2210   2.170       .  S
O2196      C2207   1.235       .  S
O2197     Mg2216   2.174       .  S
O2198     Mg2210   2.301       .  S
Mg2199     O2215   2.290       .  S
O2200     Mg2216   2.298       .  S
H2201      C2206   1.081       .  S
O2202     Mg2210   2.168       .  S
O2202      C2205   1.235       .  S
H2203      C2205   1.081   1_545  S
H2204      C2207   1.081       .  S
O2209     Mg2216   2.304       .  S
C2212      O2217   1.272       .  A
C2212      C2749   1.437       .  S
O2213      C2214   1.270   1_545  A
O2219     Mg2221   2.136       .  S
O2219     Mg2227   2.143       .  S
O2219      C2254   1.236       .  S
C2220      O2233   1.235       .  S
C2220      O2257   1.270       .  A
C2220      H2259   1.081       .  S
Mg2221     O2250   2.152       .  S
Mg2221     O2265   2.298       .  S
Mg2221     O2261   2.269       .  S
Mg2221     O2232   2.296       .  S
O2222     Mg2264   2.173       .  S
O2222     Mg2247   2.164       .  S
O2222      C2243   1.234       .  S
O2223      C2254   1.272       .  A
O2223     Mg2247   2.316       .  S
C2224      O2238   1.270       .  A
C2224      C2774   1.467       .  S
O2225      C2253   1.268       .  A
O2225     Mg2227   2.290       .  S
O2226     Mg2258   2.219       .  S
Mg2227     O2233   2.165       .  S
Mg2227     O2241   2.256       .  S
Mg2227     O2229   2.255       .  S
C2228      O2266   1.269       .  A
C2228      O2234   1.273       .  A
C2228      C2734   1.438       .  S
O2229      C2236   1.264       .  A
H2230      C2243   1.081       .  S
C2231      O2245   1.237       .  S
C2231      O2246   1.270       .  A
C2231      H2256   1.081   1_565  S
O2232      C2255   1.268       .  A
O2233     Mg2247   2.149       .  S
C2235      O2248   1.273       .  A
C2235      O2240   1.277       .  A
C2235      C2738   1.480       .  S
C2236      O2263   1.274       .  A
C2236      C2741   1.467       .  S
Mg2237     O2244   2.138       .  S
Mg2237     O2245   2.168       .  S
Mg2237     O2239   2.306       .  S
O2239      C2243   1.270       .  A
O2240     Mg2247   2.317       .  S
O2241      C2260   1.268       .  A
O2242      C2262   1.268       .  A
O2242     Mg2258   2.270       .  S
O2244     Mg2258   2.162       .  S
O2244      C2255   1.234       .  S
O2245     Mg2264   2.152       .  S
O2246     Mg2258   2.291       .  S
Mg2247     O2263   2.301       .  S
O2248     Mg2264   2.274       .  S
H2249      C2254   1.081       .  S
O2250     Mg2258   2.125       .  S
O2250      C2253   1.236       .  S
H2251      C2253   1.081       .  S
H2252      C2255   1.081       .  S
O2257     Mg2264   2.302       .  S
C2260      O2265   1.272       .  A
C2260      C2736   1.434       .  S
O2261      C2262   1.272       .  A
C2262      C2745   1.464       .  S
C2267      C2762   1.490       .  S
C2267      C2268   1.411       .  A
C2267      C2272   1.405       .  A
C2268      C2746   1.483       .  S
C2268      C2269   1.404       .  A
C2269      H2274   1.082       .  S
C2269      C2270   1.405       .  A
C2270      C2729   1.488       .  S
C2270      C2271   1.413       .  A
C2271      C2725   1.484       .  S
C2271      C2272   1.408       .  A
C2272      H2273   1.084       .  S
O2275     Mg2277   2.179   1_554  S
O2275      C2310   1.236       .  S
C2276      O2289   1.232       .  S
C2276      O2313   1.265       .  A
C2276      H2315   1.081       .  S
Mg2277     O2288   2.305       .  S
O2278     Mg2303   2.147       .  S
O2278      C2299   1.236       .  S
O2279      C2310   1.273       .  A
O2279     Mg2303   2.320       .  S
C2280      O2282   1.271       .  A
C2280      O2294   1.266       .  A
C2280      C2722   1.466       .  S
O2281      C2309   1.271   1_554  A
O2281     Mg2283   2.306       .  S
O2282     Mg2314   2.268       .  S
Mg2283     O2289   2.156       .  S
Mg2283     O2297   2.269   1_565  S
C2284      O2322   1.265       .  A
C2284      O2290   1.271   1_556  A
C2284      C2713   1.433       .  S
O2285      C2292   1.272       .  A
H2286      C2299   1.081       .  S
C2287      O2301   1.236       .  S
C2287      O2302   1.272       .  A
C2287      H2312   1.081   1_556  S
O2288      C2311   1.268       .  A
C2291      O2304   1.270       .  A
C2291      O2296   1.279       .  A
C2291      C2769   1.474       .  S
C2292      O2319   1.274       .  A
C2292      C2782   1.472       .  S
Mg2293     O2300   2.149       .  S
Mg2293     O2295   2.293       .  S
Mg2293     O2322   2.245       .  S
O2295      C2299   1.269   1_556  A
O2296     Mg2303   2.330       .  S
O2297      C2316   1.269   1_545  A
O2298      C2318   1.275       .  A
O2298     Mg2314   2.324       .  S
O2300      C2311   1.233       .  S
O2301     Mg2320   2.155   1_556  S
O2302     Mg2314   2.316       .  S
Mg2303     O2319   2.287       .  S
H2305      C2310   1.081   1_556  S
O2306     Mg2314   2.152       .  S
O2306      C2309   1.236       .  S
H2307      C2309   1.081       .  S
H2308      C2311   1.081       .  S
O2313     Mg2320   2.288       .  S
C2316      O2321   1.271   1_554  A
C2316      C2716   1.436       .  S
O2317      C2318   1.274       .  A
C2318      C2717   1.485       .  S
O2323     Mg2325   2.149   1_556  S
O2323     Mg2331   2.174       .  S
O2323      C2358   1.237       .  S
C2324      O2337   1.236       .  S
C2324      O2361   1.269       .  A
C2324      H2363   1.081       .  S
Mg2325     O2354   2.135       .  S
Mg2325     O2369   2.299       .  S
Mg2325     O2365   2.277       .  S
Mg2325     O2336   2.319       .  S
O2326     Mg2368   2.142       .  S
O2326     Mg2351   2.121       .  S
O2326      C2347   1.232       .  S
O2327      C2358   1.270       .  A
O2327     Mg2351   2.292       .  S
C2328      O2330   1.271       .  A
C2328      O2342   1.269       .  A
C2328      C2778   1.471       .  S
O2329      C2357   1.270   1_556  A
O2329     Mg2331   2.310       .  S
O2330     Mg2362   2.273       .  S
Mg2331     O2337   2.129       .  S
Mg2331     O2345   2.264       .  S
Mg2331     O2333   2.328       .  S
C2332      O2370   1.270       .  A
C2332      O2338   1.274   1_554  A
C2332      C2702   1.434       .  S
O2333      C2340   1.278       .  A
H2334      C2347   1.081       .  S
C2335      O2349   1.236       .  S
C2335      O2350   1.270       .  A
C2335      H2360   1.081   1_554  S
O2336      C2359   1.273       .  A
O2337     Mg2351   2.151       .  S
O2338     Mg2368   2.303       .  S
C2339      O2352   1.273       .  A
C2339      O2344   1.267       .  A
C2339      C2710   1.461       .  S
C2340      O2367   1.263       .  A
C2340      C2705   1.466       .  S
Mg2341     O2348   2.147       .  S
Mg2341     O2349   2.170       .  S
Mg2341     O2342   2.272       .  S
Mg2341     O2343   2.283       .  S
Mg2341     O2370   2.256       .  S
O2343      C2347   1.264   1_554  A
O2344     Mg2351   2.269       .  S
O2345      C2364   1.272       .  A
O2346      C2366   1.267       .  A
O2346     Mg2362   2.283       .  S
O2348     Mg2362   2.148       .  S
O2348      C2359   1.237       .  S
O2349     Mg2368   2.141   1_554  S
O2350     Mg2362   2.298       .  S
Mg2351     O2367   2.209       .  S
O2352     Mg2368   2.265       .  S
H2353      C2358   1.081   1_554  S
O2354     Mg2362   2.164       .  S
O2354      C2357   1.234       .  S
H2355      C2357   1.081       .  S
H2356      C2359   1.081       .  S
O2361     Mg2368   2.296       .  S
C2364      O2369   1.273   1_556  A
C2364      C2704   1.432       .  S
O2365      C2366   1.270       .  A
C2366      C2730   1.467       .  S
O2371     Mg2373   2.141   1_556  S
O2371      C2406   1.234       .  S
C2372      O2385   1.235       .  S
C2372      O2409   1.271       .  A
C2372      H2411   1.081       .  S
Mg2373     O2384   2.287       .  S
O2374     Mg2399   2.184       .  S
O2374      C2395   1.236       .  S
O2375      C2406   1.267       .  A
O2375     Mg2399   2.289       .  S
C2376      O2378   1.273       .  A
C2376      O2390   1.278       .  A
C2376      C2726   1.482       .  S
O2377      C2405   1.268   1_556  A
O2377     Mg2379   2.292       .  S
O2378     Mg2410   2.275       .  S
Mg2379     O2385   2.148       .  S
Mg2379     O2393   2.269       .  S
C2380      O2418   1.270       .  A
C2380      O2386   1.273   1_554  A
C2380      C2692   1.438       .  S
O2381      C2388   1.274       .  A
H2382      C2395   1.081       .  S
C2383      O2397   1.235       .  S
C2383      O2398   1.271       .  A
C2383      H2408   1.081   1_554  S
O2384      C2407   1.268       .  A
C2387      O2400   1.272       .  A
C2387      O2392   1.275       .  A
C2387      C2693   1.478       .  S
C2388      O2415   1.277       .  A
C2388      C2698   1.486       .  S
Mg2389     O2396   2.145       .  S
Mg2389     O2391   2.316       .  S
Mg2389     O2418   2.268       .  S
O2391      C2395   1.273   1_554  A
O2392     Mg2399   2.316       .  S
O2393      C2412   1.271       .  A
O2394      C2414   1.278       .  A
O2394     Mg2410   2.324       .  S
O2396      C2407   1.235       .  S
O2397     Mg2416   2.173   1_554  S
O2398     Mg2410   2.309       .  S
Mg2399     O2415   2.312       .  S
H2401      C2406   1.081   1_554  S
O2402     Mg2410   2.146       .  S
O2402      C2405   1.235       .  S
H2403      C2405   1.081       .  S
H2404      C2407   1.081       .  S
O2409     Mg2416   2.306       .  S
C2412      O2417   1.271   1_556  A
C2412      C2689   1.433       .  S
O2413      C2414   1.268       .  A
C2414      C2766   1.474       .  S
O2419     Mg2421   2.144       .  S
O2419     Mg2427   2.174       .  S
O2419      C2454   1.234       .  S
C2420      O2433   1.236       .  S
C2420      O2457   1.270       .  A
C2420      H2459   1.081       .  S
Mg2421     O2450   2.164       .  S
Mg2421     O2461   2.270       .  S
Mg2421     O2432   2.297       .  S
O2422     Mg2464   2.160       .  S
O2422     Mg2447   2.141       .  S
O2422      C2443   1.234       .  S
O2423      C2454   1.267       .  A
O2423     Mg2447   2.286       .  S
C2424      O2426   1.270       .  A
C2424      O2438   1.278       .  A
C2424      C2685   1.474       .  S
O2425      C2453   1.267       .  A
O2425     Mg2427   2.293       .  S
O2426     Mg2458   2.263       .  S
Mg2427     O2433   2.156       .  S
C2428      O2466   1.276       .  A
C2428      O2434   1.274       .  A
C2428      C2670   1.443       .  S
O2429      C2436   1.275   1_565  A
H2430      C2443   1.081       .  S
C2431      O2445   1.235       .  S
C2431      O2446   1.269       .  A
C2431      H2456   1.081       .  S
O2432      C2455   1.270       .  A
O2433     Mg2447   2.173       .  S
O2434     Mg2464   2.301       .  S
C2435      O2448   1.273       .  A
C2435      O2440   1.268       .  A
C2435      C2678   1.478       .  S
C2436      C2673   1.472   1_545  S
Mg2437     O2444   2.160       .  S
Mg2437     O2445   2.171       .  S
Mg2437     O2438   2.303       .  S
Mg2437     O2439   2.296       .  S
Mg2437     O2466   2.300       .  S
O2439      C2443   1.268       .  A
O2440     Mg2447   2.256       .  S
O2441      C2460   1.272       .  A
O2442      C2462   1.275       .  A
O2442     Mg2458   2.300       .  S
O2444     Mg2458   2.176       .  S
O2444      C2455   1.236       .  S
O2445     Mg2464   2.156       .  S
O2446     Mg2458   2.297       .  S
Mg2447     O2463   2.235       .  S
O2448     Mg2464   2.297       .  S
H2449      C2454   1.081       .  S
O2450     Mg2458   2.145       .  S
O2450      C2453   1.233       .  S
H2451      C2453   1.081       .  S
H2452      C2455   1.081       .  S
O2457     Mg2464   2.303       .  S
C2460      O2465   1.272       .  A
C2460      C2671   1.430       .  S
O2461      C2462   1.272       .  A
C2462      C2681   1.478       .  S
C2467      C2697   1.493       .  S
C2467      C2468   1.411       .  A
C2467      C2472   1.403       .  A
C2468      C2709   1.481       .  S
C2468      C2469   1.407       .  A
C2469      H2474   1.083       .  S
C2469      C2470   1.403       .  A
C2470      C2677   1.483       .  S
C2470      C2471   1.421       .  A
C2471      C2665   1.493       .  S
C2471      C2472   1.407       .  A
C2472      H2473   1.085       .  S
C2475      C2694   1.494       .  S
C2475      C2476   1.426       .  A
C2475      C2480   1.411       .  A
C2476      C2718   1.501       .  S
C2476      C2477   1.411       .  A
C2477      H2482   1.083       .  S
C2477      C2478   1.404       .  A
C2478      C2674   1.479       .  S
C2478      C2479   1.407       .  A
C2479      C2661   1.484       .  S
C2479      C2480   1.400       .  A
C2480      H2481   1.084       .  S
O2483     Mg2485   2.154       .  S
O2483     Mg2491   2.151       .  S
O2483      C2518   1.235       .  S
C2484      O2497   1.234       .  S
C2484      O2521   1.268       .  A
C2484      H2523   1.081       .  S
Mg2485     O2514   2.181       .  S
Mg2485     O2525   2.257       .  S
Mg2485     O2496   2.287       .  S
O2486     Mg2528   2.163       .  S
O2486     Mg2511   2.164       .  S
O2486      C2507   1.237       .  S
O2487      C2518   1.271       .  A
O2487     Mg2511   2.309       .  S
C2488      O2490   1.276       .  A
C2488      O2502   1.272       .  A
C2488      C2654   1.477       .  S
O2489      C2517   1.271       .  A
O2489     Mg2491   2.303       .  S
O2490     Mg2522   2.305       .  S
Mg2491     O2497   2.146       .  S
C2492      O2530   1.273       .  A
C2492      O2498   1.273       .  A
C2492      C2645   1.444       .  S
O2493      C2500   1.270       .  A
H2494      C2507   1.081       .  S
C2495      O2509   1.235       .  S
C2495      O2510   1.270       .  A
C2495      H2520   1.081       .  S
O2496      C2519   1.266       .  A
O2497     Mg2511   2.149       .  S
C2499      O2512   1.270       .  A
C2499      O2504   1.277       .  A
C2500      C2666   1.478       .  S
Mg2501     O2508   2.145       .  S
Mg2501     O2509   2.149       .  S
Mg2501     O2502   2.288       .  S
Mg2501     O2503   2.306       .  S
O2503      C2507   1.272       .  A
O2504     Mg2511   2.331       .  S
O2505      C2524   1.268       .  A
O2506      C2526   1.277       .  A
O2506     Mg2522   2.312       .  S
O2508     Mg2522   2.158       .  S
O2508      C2519   1.233       .  S
O2509     Mg2528   2.153       .  S
O2510     Mg2522   2.308       .  S
Mg2511     O2527   2.295       .  S
O2512     Mg2528   2.252       .  S
H2513      C2518   1.081   1_455  S
O2514     Mg2522   2.159       .  S
O2514      C2517   1.237       .  S
H2515      C2517   1.081       .  S
H2516      C2519   1.081       .  S
O2521     Mg2528   2.300       .  S
C2524      O2529   1.269       .  A
C2524      C2647   1.430       .  S
O2525      C2526   1.270       .  A
C2526      C2658   1.471       .  S
O2531     Mg2533   2.136       .  S
O2531     Mg2539   2.146       .  S
O2531      C2566   1.238       .  S
C2532      O2545   1.234       .  S
C2532      O2569   1.270       .  A
C2532      H2571   1.081       .  S
Mg2533     O2562   2.152       .  S
Mg2533     O2577   2.293       .  S
Mg2533     O2573   2.257       .  S
Mg2533     O2544   2.300       .  S
O2534     Mg2576   2.154       .  S
O2534     Mg2559   2.162       .  S
O2534      C2555   1.234       .  S
O2535      C2566   1.274       .  A
O2535     Mg2559   2.324       .  S
C2536      O2550   1.276       .  A
C2536      C2662   1.472       .  S
O2537      C2565   1.269       .  A
O2537     Mg2539   2.292       .  S
O2538     Mg2570   2.227       .  S
Mg2539     O2545   2.140       .  S
Mg2539     O2553   2.219       .  S
Mg2539     O2541   2.251       .  S
C2540      O2578   1.272       .  A
C2540      O2546   1.276       .  A
C2540      C2629   1.441       .  S
O2541      C2548   1.260       .  A
H2542      C2555   1.081       .  S
C2543      O2557   1.236       .  S
C2543      O2558   1.271       .  A
C2543      H2568   1.081   1_655  S
O2544      C2567   1.267       .  A
O2545     Mg2559   2.119       .  S
C2547      O2560   1.277       .  A
C2547      O2552   1.272       .  A
C2547      C2641   1.477       .  S
C2548      O2575   1.270       .  A
C2548      C2638   1.468       .  S
Mg2549     O2556   2.150       .  S
Mg2549     O2557   2.177       .  S
Mg2549     O2551   2.307       .  S
O2551      C2555   1.270       .  A
O2552     Mg2559   2.296       .  S
O2553      C2572   1.262       .  A
O2554      C2574   1.272       .  A
O2554     Mg2570   2.305       .  S
O2556     Mg2570   2.162       .  S
O2556      C2567   1.233       .  S
O2557     Mg2576   2.178       .  S
O2558     Mg2570   2.300       .  S
Mg2559     O2575   2.303       .  S
O2560     Mg2576   2.312       .  S
H2561      C2566   1.081       .  S
O2562     Mg2570   2.131       .  S
O2562      C2565   1.236       .  S
H2563      C2565   1.081       .  S
H2564      C2567   1.081       .  S
O2569     Mg2576   2.308       .  S
C2572      O2577   1.270       .  A
C2572      C2631   1.424       .  S
O2573      C2574   1.271       .  A
C2574      C2633   1.471       .  S
C2579      C2706   1.483       .  S
C2579      C2580   1.419       .  A
C2579      C2584   1.400       .  A
C2580      C2721   1.482       .  S
C2580      C2581   1.401       .  A
C2581      H2586   1.085       .  S
C2581      C2582   1.401       .  A
C2582      C2649   1.482       .  S
C2582      C2583   1.415       .  A
C2583      C2634   1.488       .  S
C2583      C2584   1.405       .  A
C2584      H2585   1.083       .  S
C2587      C2793   1.486       .  S
C2587      C2588   1.415       .  A
C2587      C2592   1.401       .  A
C2588      C2754   1.492       .  S
C2588      C2589   1.407       .  A
C2589      H2594   1.082       .  S
C2590      C2642   1.498       .  S
C2590      C2591   1.419       .  A
C2591      C2657   1.490       .  S
C2592      H2593   1.082       .  S
C2595      C2798   1.480       .  S
C2595      C2596   1.416       .  A
C2595      C2600   1.400       .  A
C2596      C2742   1.485       .  S
C2596      C2597   1.406       .  A
C2597      H2602   1.085       .  S
C2597      C2598   1.406       .  A
C2598      C2637   1.485       .  S
C2598      C2599   1.417       .  A
C2599      C2686   1.481       .  S
C2599      C2600   1.400       .  A
C2600      H2601   1.085       .  S
C2603      C2737   1.489       .  S
C2603      C2604   1.418       .  A
C2603      C2608   1.406       .  A
C2604      C2757   1.492       .  S
C2604      C2605   1.410       .  A
C2605      H2610   1.084       .  S
C2606      C2682   1.487       .  S
C2606      C2607   1.418       .  A
C2607      C2653   1.494       .  S
C2608      H2609   1.084       .  S
C2611      C2691   1.457       .  S
C2611      C2612   1.411       .  A
C2612      C2715   1.452   1_565  S
C2613      C2701   1.450       .  S
C2613      C2614   1.409   1_554  A
C2615      C2616   1.413       .  A
C2616      C2703   1.447       .  S
C2617      C2792   1.455       .  S
C2617      C2618   1.410       .  A
C2617      C2622   1.417       .  A
C2618      C2751   1.460       .  S
C2618      C2619   1.413       .  A
C2619      C2735   1.449       .  S
C2619      C2620   1.416       .  A
C2620      C2790   1.459       .  S
C2620      C2621   1.411       .  A
C2621      C2750   1.455       .  S
C2621      C2622   1.415       .  A
C2622      C2733   1.453       .  S
C2623      C2632   1.441       .  S
C2623      C2624   1.408       .  A
C2623      C2628   1.412       .  A
C2624      C2646   1.462       .  S
C2624      C2625   1.412       .  A
C2625      C2672   1.445       .  S
C2625      C2626   1.416       .  A
C2626      C2630   1.458       .  S
C2626      C2627   1.410       .  A
C2627      C2648   1.448       .  S
C2627      C2628   1.410       .  A
C2628      C2669   1.459       .  S
C2629      C2630   1.210       .  T
C2631      C2632   1.200       .  T
C2633      C2634   1.345       .  D
C2633      H2635   1.086       .  S
C2634      H2636   1.086       .  S
C2637      C2638   1.339       .  D
C2637      H2639   1.087       .  S
C2638      H2640   1.087       .  S
C2641      C2642   1.347       .  D
C2641      H2643   1.085       .  S
C2642      H2644   1.087       .  S
C2645      C2646   1.212       .  T
C2647      C2648   1.203       .  T
C2649      C2650   1.347       .  D
C2649      H2651   1.086       .  S
C2653      C2654   1.345       .  D
C2653      H2655   1.087       .  S
C2654      H2656   1.086       .  S
C2657      C2658   1.347       .  D
C2657      H2659   1.087       .  S
C2658      H2660   1.086       .  S
C2661      C2662   1.343       .  D
C2661      H2663   1.086       .  S
C2662      H2664   1.085       .  S
C2665      C2666   1.342       .  D
C2665      H2667   1.087       .  S
C2669      C2670   1.211       .  T
C2671      C2672   1.204       .  T
C2673      C2674   1.343       .  D
C2674      H2676   1.086       .  S
C2677      C2678   1.352       .  D
C2677      H2679   1.087       .  S
C2678      H2680   1.086       .  S
C2681      C2682   1.347       .  D
C2681      H2683   1.086       .  S
C2682      H2684   1.087       .  S
C2685      C2686   1.343       .  D
C2685      H2687   1.086       .  S
C2686      H2688   1.087       .  S
C2689      C2690   1.206       .  T
C2691      C2692   1.208       .  T
C2693      C2694   1.351       .  D
C2693      H2695   1.086       .  S
C2694      H2696   1.085       .  S
C2697      C2698   1.354       .  D
C2697      H2699   1.087       .  S
C2698      H2700   1.086       .  S
C2701      C2702   1.206       .  T
C2703      C2704   1.205       .  T
C2705      C2706   1.338       .  D
C2705      H2707   1.087       .  S
C2706      H2708   1.087       .  S
C2709      C2710   1.338       .  D
C2709      H2711   1.088       .  S
C2710      H2712   1.085       .  S
C2713      C2714   1.206       .  T
C2715      C2716   1.207   1_545  T
C2717      C2718   1.352       .  D
C2717      H2719   1.086       .  S
C2718      H2720   1.085       .  S
C2721      C2722   1.339       .  D
C2721      H2723   1.087       .  S
C2722      H2724   1.086       .  S
C2725      C2726   1.346       .  D
C2725      H2727   1.086       .  S
C2726      H2728   1.087       .  S
C2729      C2730   1.344       .  D
C2729      H2731   1.087       .  S
C2730      H2732   1.086       .  S
C2733      C2734   1.209       .  T
C2735      C2736   1.206       .  T
C2737      C2738   1.348       .  D
C2737      H2739   1.087       .  S
C2738      H2740   1.087   1_565  S
C2741      C2742   1.339       .  D
C2741      H2743   1.087       .  S
C2742      H2744   1.087       .  S
C2745      C2746   1.338       .  D
C2745      H2747   1.086       .  S
C2746      H2748   1.087       .  S
C2749      C2750   1.208       .  T
C2751      C2752   1.210       .  T
C2753      C2754   1.344       .  D
C2753      H2755   1.086       .  S
C2754      H2756   1.087       .  S
C2757      C2758   1.347       .  D
C2757      H2759   1.087       .  S
C2758      H2760   1.086       .  S
C2761      C2762   1.351       .  D
C2761      H2763   1.087       .  S
C2762      H2764   1.086       .  S
C2765      C2766   1.347       .  D
C2765      H2767   1.085       .  S
C2766      H2768   1.086       .  S
C2769      C2770   1.349       .  D
C2769      H2771   1.086       .  S
C2770      H2772   1.084       .  S
C2773      C2774   1.339       .  D
C2773      H2775   1.086       .  S
C2774      H2776   1.088       .  S
C2777      C2778   1.339       .  D
C2777      H2779   1.086       .  S
C2778      H2780   1.088       .  S
C2781      C2782   1.343       .  D
C2781      H2783   1.086       .  S
C2782      H2784   1.084       .  S
C2785      C2786   1.351       .  D
C2785      H2787   1.087       .  S
C2789      C2790   1.211       .  T
C2791      C2792   1.209       .  T
C2793      C2794   1.346       .  D
C2793      H2795   1.088       .  S
C2794      H2796   1.086       .  S
C2797      C2798   1.344       .  D
C2797      H2799   1.086       .  S
C2798      H2800   1.088       .  S
C2801      C2802   1.342       .  D
C2802      H2804   1.086   1_655  S
C2805      C2806   1.349       .  D
C2805      H2807   1.087       .  S
C2806      H2808   1.086       .  S
