geometry optimzed in LAMMPS
_audit_creation_date              2020-11-30 
_audit_creation_method            'lammps2cif' 
_symmetry_space_group_name_H-M    'P1' 
_symmetry_Int_Tables_number       1 
_symmetry_cell_setting            triclinic 
loop_ 
_symmetry_equiv_pos_as_xyz 
  x,y,z 
_cell_length_a                    112.91476246 
_cell_length_b                    112.91733646558559 
_cell_length_c                    113.0119291992038 
_cell_angle_alpha                 90.00578118742888 
_cell_angle_beta                  90.12187849494414 
_cell_angle_gamma                 89.9528798073514 
loop_ 
_atom_site_label 
_atom_site_type_symbol 
_atom_site_fract_x 
_atom_site_fract_y 
_atom_site_fract_z 
_atom_site_charge 
N1          N  0.17383471  0.48006542  0.07647881    -0.25900
N2          N  0.18472836  0.47666069  0.07387957    -0.33700
C3          C  0.18937534  0.47085274  0.08316865     0.02500
C4          C  0.18108316  0.47064007  0.09215174     0.08500
C5          C  0.17133281  0.47662349  0.08762107    -0.04600
H6          H  0.19835361  0.46752519  0.08354934     0.09200
H7          H  0.16308125  0.47843887  0.09211856     0.10400
Cu8        Cu  0.19338211  0.48099990  0.05835565     0.44200
Cu9        Cu  0.16311031  0.48934290  0.06459055     0.42000
Cu10       Cu  0.17735549  0.49761572  0.03660114     0.43900
N11         N  0.20097161  0.48721103  0.04291100    -0.33300
N12         N  0.19509257  0.49320281  0.03475247    -0.27500
C13         C  0.20253880  0.49596995  0.02587787    -0.03600
C14         C  0.21366272  0.49160987  0.02870146     0.08600
C15         C  0.21232289  0.48612264  0.03955670     0.02400
H16         H  0.20010867  0.50103818  0.01812071     0.10100
H17         H  0.21909967  0.48164393  0.04465191     0.09100
N18         N  0.15965920  0.50065575  0.04049976    -0.34700
N19         N  0.15444090  0.49771825  0.05054905    -0.26900
C20         C  0.14289518  0.50067599  0.04986252    -0.02100
C21         C  0.14072715  0.50568546  0.03884620     0.06500
C22         C  0.15160918  0.50553976  0.03320656     0.04600
H23         H  0.13649967  0.49898761  0.05676926     0.09700
H24         H  0.15360045  0.50877364  0.02442822     0.08500
N25         N  0.33393353  0.48803962  0.93951096    -0.25900
N26         N  0.32231047  0.48740306  0.94048976    -0.33700
C27         C  0.31759146  0.48433310  0.93004329     0.02500
C28         C  0.32663556  0.48308468  0.92188700     0.08500
C29         C  0.33693047  0.48546455  0.92825627    -0.04600
H30         H  0.30821288  0.48305950  0.92859547     0.09200
H31         H  0.34590169  0.48559675  0.92493441     0.10400
Cu32       Cu  0.31315739  0.49122151  0.95571376     0.44200
Cu33       Cu  0.34465482  0.49260414  0.95384158     0.42000
Cu34       Cu  0.32908614  0.49832705  0.98217191     0.43900
N35         N  0.30492513  0.49494673  0.97147231    -0.33300
N36         N  0.31064390  0.49708828  0.98145583    -0.27500
C37         C  0.30264870  0.49815698  0.99023328    -0.03600
C38         C  0.29141759  0.49677865  0.98541155     0.08600
C39         C  0.29322257  0.49479067  0.97351526     0.02400
H40         H  0.30483430  0.49971771  0.99942655     0.10100
H41         H  0.28655416  0.49284627  0.96690749     0.09100
N42         N  0.34734161  0.49996846  0.97963871    -0.34700
N43         N  0.35287276  0.49783846  0.96953790    -0.26900
C44         C  0.36446342  0.50023420  0.97091302    -0.02100
C45         C  0.36639490  0.50414294  0.98237379     0.06500
C46         C  0.35530638  0.50383073  0.98765402     0.04600
H47         H  0.37094968  0.49962913  0.96387129     0.09700
H48         H  0.35314118  0.50631913  0.99658661     0.08500
N49         N  0.21378028  0.61095405  0.31653502    -0.25900
N50         N  0.21328654  0.59929799  0.31563959    -0.33700
C51         C  0.20818897  0.59481630  0.32536288     0.02500
C52         C  0.20533446  0.60404907  0.33286933     0.08500
C53         C  0.20908648  0.61418946  0.32702041    -0.04600
H54         H  0.20699982  0.58545175  0.32699515     0.09200
H55         H  0.20840743  0.62322868  0.33011136     0.10400
Cu56       Cu  0.21997190  0.58972529  0.30162117     0.44200
Cu57       Cu  0.22071973  0.62155913  0.30311175     0.42000
Cu58       Cu  0.23081492  0.60562532  0.27653454     0.43900
N59         N  0.22695066  0.58151158  0.28690887    -0.33300
N60         N  0.23065192  0.58729688  0.27746024    -0.27500
C61         C  0.23398268  0.57941112  0.26918047    -0.03600
C62         C  0.23239390  0.56813726  0.27373926     0.08600
C63         C  0.22794439  0.56981991  0.28499535     0.02400
H64         H  0.23723261  0.58171553  0.26048327     0.10100
H65         H  0.22517880  0.56304859  0.29117073     0.09100
N66         N  0.23091034  0.62389786  0.27835921    -0.34700
N67         N  0.22741149  0.62966589  0.28792600    -0.26900
C68         C  0.22910303  0.64133687  0.28620610    -0.02100
C69         C  0.23391776  0.64302283  0.27503712     0.06500
C70         C  0.23490478  0.63173030  0.27034812     0.04600
H71         H  0.22697591  0.64807700  0.29265946     0.09700
H72         H  0.23865175  0.62929451  0.26189112     0.08500
N73         N  0.21298315  0.44522202  0.19241529    -0.25900
N74         N  0.21514065  0.45671620  0.19221162    -0.33700
C75         C  0.21211152  0.46109155  0.18160057     0.02500
C76         C  0.20788414  0.45193936  0.17463148     0.08500
C77         C  0.20850110  0.44197525  0.18182748    -0.04600
H78         H  0.21282652  0.47033964  0.17922280     0.09200
H79         H  0.20612949  0.43299769  0.17948326     0.10400
Cu80       Cu  0.22211744  0.46622312  0.20617268     0.44200
Cu81       Cu  0.21681273  0.43475096  0.20712259     0.42000
Cu82       Cu  0.22883843  0.45067419  0.23289948     0.43900
N83         N  0.22789352  0.47459677  0.22134304    -0.33300
N84         N  0.23001196  0.46897434  0.23137516    -0.27500
C85         C  0.23263556  0.47698968  0.23979700    -0.03600
C86         C  0.23222689  0.48817500  0.23475047     0.08600
C87         C  0.22922069  0.48629492  0.22303677     0.02400
H88         H  0.23456179  0.47483963  0.24892687     0.10100
H89         H  0.22757079  0.49296512  0.21636038     0.09100
N90         N  0.22763168  0.43234351  0.23161410    -0.34700
N91         N  0.22312715  0.42660232  0.22244147    -0.26900
C92         C  0.22426264  0.41488077  0.22430124    -0.02100
C93         C  0.22983980  0.41313023  0.23509807     0.06500
C94         C  0.23180710  0.42442212  0.23947932     0.04600
H95         H  0.22174002  0.40814650  0.21797366     0.09700
H96         H  0.23613728  0.42675162  0.24770027     0.08500
N97         N  0.33825268  0.57278218  0.56334956    -0.25900
N98         N  0.32672373  0.57400595  0.56174083    -0.33700
C99         C  0.32181864  0.57847031  0.57157242     0.02500
C100        C  0.33061220  0.58012197  0.57994374     0.08500
C101        C  0.34097724  0.57648910  0.57438028    -0.04600
H102        H  0.31245501  0.58022499  0.57255745     0.09200
H103        H  0.34975594  0.57611288  0.57821247     0.10400
Cu104      Cu  0.31769022  0.56871672  0.54680137     0.44200
Cu105      Cu  0.34923234  0.56528544  0.55046635     0.42000
Cu106      Cu  0.33377490  0.55488337  0.52354984     0.43900
N107        N  0.30967401  0.56207017  0.53183271    -0.33300
N108        N  0.31556634  0.55714426  0.52303295    -0.27500
C109        C  0.30782719  0.55382615  0.51458716    -0.03600
C110        C  0.29652978  0.55670271  0.51839362     0.08600
C111        C  0.29804943  0.56191119  0.52934967     0.02400
H112        H  0.31022466  0.54946637  0.50641016     0.10100
H113        H  0.29122819  0.56546375  0.53504848     0.09100
N114        N  0.35179199  0.55301945  0.52663640    -0.34700
N115        N  0.35741982  0.55671911  0.53623273    -0.26900
C116        C  0.36894960  0.55380114  0.53527320    -0.02100
C117        C  0.37067058  0.54799309  0.52457794     0.06500
C118        C  0.35955927  0.54768328  0.51938001     0.04600
H119        H  0.37559303  0.55584817  0.54186827     0.09700
H120        H  0.35718132  0.54363388  0.51103549     0.08500
N121        N  0.17796996  0.56764108  0.42982439    -0.25900
N122        N  0.18959957  0.56687486  0.43086298    -0.33700
C123        C  0.19471514  0.57182164  0.42138705     0.02500
C124        C  0.18593575  0.57589899  0.41386471     0.08500
C125        C  0.17538414  0.57311538  0.41953385    -0.04600
H126        H  0.20418875  0.57260329  0.42024312     0.09200
H127        H  0.16649318  0.57479805  0.41637904     0.10400
Cu128      Cu  0.19836857  0.55978211  0.44520608     0.44200
Cu129      Cu  0.16648481  0.56128879  0.44276080     0.42000
Cu130      Cu  0.18131342  0.55257481  0.47048103     0.43900
N131        N  0.20587610  0.55501446  0.46112420    -0.33300
N132        N  0.19959731  0.55283842  0.47071597    -0.27500
C133        C  0.20700378  0.55103336  0.47987753    -0.03600
C134        C  0.21849838  0.55203963  0.47575912     0.08600
C135        C  0.21743995  0.55455363  0.46383662     0.02400
H136        H  0.20422391  0.54918068  0.48884201     0.10100
H137        H  0.22453054  0.55640964  0.45768742     0.09100
N138        N  0.16331138  0.55131042  0.46743153    -0.34700
N139        N  0.15788438  0.55426761  0.45747685    -0.26900
C140        C  0.14627133  0.55180599  0.45855382    -0.02100
C141        C  0.14431613  0.54705377  0.46970917     0.06500
C142        C  0.15534692  0.54693377  0.47505958     0.04600
H143        H  0.13980385  0.55316195  0.45161345     0.09700
H144        H  0.15749222  0.54397139  0.48390685     0.08500
N145        N  0.31060683  0.61297392  0.68164159    -0.25900
N146        N  0.31607690  0.60298148  0.68435122    -0.33700
C147        C  0.32059304  0.59816372  0.67451279     0.02500
C148        C  0.31766279  0.60522546  0.66493713     0.08500
C149        C  0.31143053  0.61467438  0.66983037    -0.04600
H150        H  0.32519496  0.58976617  0.67434864     0.09200
H151        H  0.30718673  0.62184409  0.66509337     0.10400
Cu152      Cu  0.31520928  0.59452997  0.70053803     0.44200
Cu153      Cu  0.30150772  0.62290186  0.69438591     0.42000
Cu154      Cu  0.29811406  0.60753184  0.72318919     0.43900
N155        N  0.31076023  0.58546337  0.71578489    -0.33300
N156        N  0.30445346  0.59026813  0.72433616    -0.27500
C157        C  0.30253226  0.58206223  0.73276013    -0.03600
C158        C  0.30778949  0.57145566  0.72928230     0.08600
C159        C  0.31289717  0.57405385  0.71840985     0.02400
H160        H  0.29758286  0.58375634  0.74075494     0.10100
H161        H  0.31742127  0.56802524  0.71252240     0.09100
N162        N  0.29243367  0.62471880  0.71966922    -0.34700
N163        N  0.29361195  0.63030995  0.70944333    -0.26900
C164        C  0.28916470  0.64133885  0.71057474    -0.02100
C165        C  0.28498954  0.64279185  0.72205040     0.06500
C166        C  0.28720029  0.63200260  0.72748503     0.04600
H167        H  0.28925264  0.64789795  0.70360508     0.09700
H168        H  0.28509373  0.62951491  0.73647423     0.08500
N169        N  0.30578179  0.45318363  0.81988445    -0.25900
N170        N  0.31135390  0.46292327  0.81660735    -0.33700
C171        C  0.31614230  0.46816590  0.82613353     0.02500
C172        C  0.31346402  0.46148783  0.83602493     0.08500
C173        C  0.30693172  0.45197331  0.83171052    -0.04600
H174        H  0.32093927  0.47644799  0.82586260     0.09200
H175        H  0.30282024  0.44502450  0.83684575     0.10400
Cu176      Cu  0.31083868  0.46982458  0.79975480     0.44200
Cu177      Cu  0.29611050  0.44289289  0.80786936     0.42000
Cu178      Cu  0.29100278  0.45713776  0.77873100     0.43900
N179        N  0.30676002  0.47787530  0.78391499    -0.33300
N180        N  0.29924539  0.47346621  0.77612054    -0.27500
C181        C  0.29778852  0.48139523  0.76731377    -0.03600
C182        C  0.30470777  0.49130955  0.76975854     0.08600
C183        C  0.31023678  0.48866579  0.78038705     0.02400
H184        H  0.29198824  0.48007328  0.75980647     0.10100
H185        H  0.31588716  0.49440008  0.78557561     0.09100
N186        N  0.28492249  0.44033664  0.78345603    -0.34700
N187        N  0.28700247  0.43506459  0.79372633    -0.26900
C188        C  0.28259502  0.42397640  0.79330017    -0.02100
C189        C  0.27741192  0.42220171  0.78229817     0.06500
C190        C  0.27904049  0.43279171  0.77634291     0.04600
H191        H  0.28321921  0.41763742  0.80045111     0.09700
H192        H  0.27659097  0.43471040  0.76728413     0.08500
N193        N  0.56049002  0.59343429  0.33596405    -0.25900
N194        N  0.55977015  0.59242258  0.32433629    -0.33700
C195        C  0.56377827  0.60238900  0.31928539     0.02500
C196        C  0.56722480  0.61014265  0.32811931     0.08500
C197        C  0.56497988  0.60415999  0.33861221    -0.04600
H198        H  0.56383579  0.60396176  0.30984590     0.09200
H199        H  0.56646602  0.60733738  0.34751912     0.10400
Cu200      Cu  0.55352289  0.57768003  0.31555606     0.44200
Cu201      Cu  0.55499258  0.58021172  0.34754244     0.42000
Cu202      Cu  0.54651607  0.55247278  0.33306384     0.43900
N203        N  0.54923607  0.56147346  0.30833348    -0.33300
N204        N  0.54708390  0.55197012  0.31478111    -0.27500
C205        C  0.54531685  0.54267731  0.30754280    -0.03600
C206        C  0.54632383  0.54660003  0.29598144     0.08600
C207        C  0.54879721  0.55855982  0.29682467     0.02400
H208        H  0.54332830  0.53378238  0.31047805     0.10100
H209        H  0.55046221  0.56464165  0.28962282     0.09100
N210        N  0.54520062  0.55558010  0.35105682    -0.34700
N211        N  0.54824439  0.56554443  0.35640953    -0.26900
C212        C  0.54553678  0.56467076  0.36798120    -0.02100
C213        C  0.54045659  0.55367428  0.36995004     0.06500
C214        C  0.54045711  0.54816411  0.35901931     0.04600
H215        H  0.54669045  0.57172102  0.37436252     0.09700
H216        H  0.53706232  0.53945904  0.35691792     0.08500
N217        N  0.55292316  0.45677523  0.17565150    -0.25900
N218        N  0.55557982  0.45820187  0.18695406    -0.33700
C219        C  0.56107535  0.44846384  0.19098232     0.02500
C220        C  0.56192370  0.44035309  0.18185188     0.08500
C221        C  0.55659596  0.44591980  0.17222930    -0.04600
H222        H  0.56366931  0.44714426  0.20010837     0.09200
H223        H  0.55529300  0.44228955  0.16346706     0.10400
Cu224      Cu  0.55063370  0.47265521  0.19699067     0.44200
Cu225      Cu  0.54393997  0.46976951  0.16593898     0.42000
Cu226      Cu  0.53480700  0.49617785  0.18285320     0.43900
N227        N  0.54467011  0.48743205  0.20593844    -0.33300
N228        N  0.53910480  0.49630987  0.20071791    -0.27500
C229        C  0.53704757  0.50484649  0.20876868    -0.03600
C230        C  0.54140590  0.50103487  0.21957952     0.08600
C231        C  0.54614327  0.48995652  0.21746665     0.02400
H232        H  0.53274835  0.51320395  0.20688862     0.10100
H233        H  0.55068700  0.48431793  0.22374838     0.09100
N234        N  0.53174875  0.49380159  0.16488269    -0.34700
N235        N  0.53507548  0.48438920  0.15874708    -0.26900
C236        C  0.53190365  0.48595377  0.14735925    -0.02100
C237        C  0.52629167  0.49684687  0.14624856     0.06500
C238        C  0.52636594  0.50153349  0.15757928     0.04600
H239        H  0.53349496  0.47955134  0.14042478     0.09700
H240        H  0.52301602  0.51007959  0.16031269     0.08500
N241        N  0.59070279  0.71113409  0.29872378    -0.25900
N242        N  0.57943374  0.71316742  0.30112048    -0.33700
C243        C  0.57471024  0.70353071  0.30618115     0.02500
C244        C  0.58334459  0.69485819  0.30695433     0.08500
C245        C  0.59341913  0.70003881  0.30218163    -0.04600
H246        H  0.56558347  0.70292674  0.30898415     0.09200
H247        H  0.60198219  0.69593831  0.30091828     0.10400
Cu248      Cu  0.57039714  0.72847125  0.29685023     0.44200
Cu249      Cu  0.60161717  0.72356397  0.29058632     0.42000
Cu250      Cu  0.58673636  0.75175929  0.28393014     0.43900
N251        N  0.56267378  0.74416018  0.29155138    -0.33300
N252        N  0.56877228  0.75297012  0.28692302    -0.27500
C253        C  0.56136656  0.76196121  0.28441424    -0.03600
C254        C  0.55001791  0.75855502  0.28753635     0.08600
C255        C  0.55119830  0.74721821  0.29204707     0.02400
H256        H  0.56402390  0.77023250  0.28039167     0.10100
H257        H  0.54426561  0.74163528  0.29556197     0.09100
N258        N  0.60445802  0.74840841  0.28104905    -0.34700
N259        N  0.60994056  0.73827739  0.28321632    -0.26900
C260        C  0.62145498  0.73946512  0.28034068    -0.02100
C261        C  0.62325633  0.75091620  0.27628954     0.06500
C262        C  0.61226959  0.75626675  0.27682097     0.04600
H263        H  0.62806910  0.73261725  0.28145669     0.09700
H264        H  0.61005579  0.76524132  0.27430023     0.08500
N265        N  0.42692275  0.84180352  0.30262092    -0.25900
N266        N  0.43773808  0.83996571  0.30670907    -0.33700
C267        C  0.44198731  0.85007347  0.31129555     0.02500
C268        C  0.43348098  0.85881206  0.31002452     0.08500
C269        C  0.42399044  0.85320978  0.30455043    -0.04600
H270        H  0.45081312  0.85104018  0.31490533     0.09200
H271        H  0.41583012  0.85726870  0.30158069     0.10400
Cu272      Cu  0.44715814  0.82455045  0.30411510     0.44200
Cu273      Cu  0.41737801  0.82887038  0.29352327     0.42000
Cu274      Cu  0.43451936  0.80286166  0.28462135     0.43900
N275        N  0.45666445  0.81070547  0.29700364    -0.33300
N276        N  0.45220680  0.80296676  0.28945063    -0.27500
C277        C  0.46094542  0.79583566  0.28562586    -0.03600
C278        C  0.47137587  0.79926499  0.29110667     0.08600
C279        C  0.46831115  0.80869798  0.29826543     0.02400
H280        H  0.45977298  0.78869204  0.27935479     0.10100
H281        H  0.47417774  0.81400397  0.30367512     0.09100
N282        N  0.41656604  0.80491109  0.28147356    -0.34700
N283        N  0.41033443  0.81434545  0.28454326    -0.26900
C284        C  0.39903492  0.81278294  0.28105730    -0.02100
C285        C  0.39810428  0.80181663  0.27560666     0.06500
C286        C  0.40940662  0.79709596  0.27605304     0.04600
H287        H  0.39199020  0.81910160  0.28254795     0.09700
H288        H  0.41229229  0.78866835  0.27252982     0.08500
N289        N  0.41737300  0.21453576  0.20243393    -0.25900
N290        N  0.42891396  0.21618536  0.20164078    -0.33700
C291        C  0.43393422  0.20660289  0.19678787     0.02500
C292        C  0.42517614  0.19840625  0.19437656     0.08500
C293        C  0.41473250  0.20370636  0.19813511    -0.04600
H294        H  0.44337752  0.20547227  0.19565587     0.09200
H295        H  0.40593451  0.19992772  0.19795270     0.10400
Cu296      Cu  0.43768450  0.23073992  0.20822587     0.44200
Cu297      Cu  0.40644059  0.22717225  0.21010671     0.42000
Cu298      Cu  0.42172019  0.25357654  0.22299251     0.43900
N299        N  0.44592973  0.24493877  0.21615039    -0.33300
N300        N  0.44024040  0.25357273  0.22160380    -0.27500
C301        C  0.44830125  0.26132846  0.22584513    -0.03600
C302        C  0.45958081  0.25724912  0.22297609     0.08600
C303        C  0.45764061  0.24685361  0.21680231     0.02400
H304        H  0.44612703  0.26921259  0.23082482     0.10100
H305        H  0.46424981  0.24112014  0.21291177     0.09100
N306        N  0.40341313  0.25042167  0.22348197    -0.34700
N307        N  0.39810434  0.24096859  0.21898347    -0.26900
C308        C  0.38647566  0.24146323  0.22148008    -0.02100
C309        C  0.38425965  0.25169791  0.22782390     0.06500
C310        C  0.39519727  0.25718807  0.22887763     0.04600
H311        H  0.38011593  0.23476520  0.21893543     0.09700
H312        H  0.39712578  0.26528870  0.23361119     0.08500
N313        N  0.58230899  0.33921425  0.21404974    -0.25900
N314        N  0.57084569  0.33953469  0.21636571    -0.33700
C315        C  0.56652420  0.35016351  0.21312840     0.02500
C316        C  0.57568822  0.35691564  0.20851975     0.08500
C317        C  0.58557540  0.34963533  0.20926217    -0.04600
H318        H  0.55729863  0.35265245  0.21379468     0.09200
H319        H  0.59452352  0.35176501  0.20662807     0.10400
Cu320      Cu  0.56145879  0.32524412  0.22324371     0.44200
Cu321      Cu  0.59289841  0.32454578  0.21761280     0.42000
Cu322      Cu  0.57776378  0.29804894  0.22820392     0.43900
N323        N  0.55350172  0.30931640  0.22799884    -0.33300
N324        N  0.55935283  0.29923699  0.22924973    -0.27500
C325        C  0.55150431  0.29040737  0.23093073    -0.03600
C326        C  0.54019349  0.29519596  0.23090542     0.08600
C327        C  0.54182202  0.30719830  0.22905534     0.02400
H328        H  0.55383887  0.28116062  0.23186876     0.10100
H329        H  0.53497346  0.31380310  0.22788264     0.09100
N330        N  0.59614066  0.29978802  0.22734969    -0.34700
N331        N  0.60160150  0.30933074  0.22333087    -0.26900
C332        C  0.61337261  0.30787239  0.22457365    -0.02100
C333        C  0.61548081  0.29693012  0.22972256     0.06500
C334        C  0.60431748  0.29205354  0.23131747     0.04600
H335        H  0.61987704  0.31456890  0.22245741     0.09700
H336        H  0.60224676  0.28359244  0.23528958     0.08500
N337        N  0.46191671  0.09961847  0.17123510    -0.25900
N338        N  0.45959198  0.09800701  0.18257139    -0.33700
C339        C  0.45508987  0.10798549  0.18714900     0.02500
C340        C  0.45446172  0.11639424  0.17830547     0.08500
C341        C  0.45883407  0.11078082  0.16827445    -0.04600
H342        H  0.45216324  0.10890837  0.19621170     0.09200
H343        H  0.45974491  0.11452474  0.15951370     0.10400
Cu344      Cu  0.46192709  0.08230575  0.19146801     0.44200
Cu345      Cu  0.46906698  0.08617199  0.16075144     0.42000
Cu346      Cu  0.47335926  0.05738183  0.17634177     0.43900
N347        N  0.46390249  0.06607734  0.19946566    -0.33300
N348        N  0.46816479  0.05665615  0.19403219    -0.27500
C349        C  0.46834221  0.04754007  0.20174783    -0.03600
C350        C  0.46388464  0.05148540  0.21252179     0.08600
C351        C  0.46121753  0.06329905  0.21067738     0.02400
H352        H  0.47136364  0.03870133  0.19962947     0.10100
H353        H  0.45777757  0.06953955  0.21707024     0.09100
N354        N  0.47783064  0.06074205  0.15874493    -0.34700
N355        N  0.47628384  0.07092378  0.15313336    -0.26900
C356        C  0.48009208  0.06972281  0.14190345    -0.02100
C357        C  0.48424603  0.05825057  0.14031634     0.06500
C358        C  0.48267008  0.05287571  0.15123764     0.04600
H359        H  0.47962369  0.07666606  0.13532801     0.09700
H360        H  0.48498702  0.04390967  0.15366929     0.08500
N361        N  0.45231411  0.96289261  0.33266506    -0.25900
N362        N  0.44795067  0.96530631  0.32207887    -0.33700
C363        C  0.44337938  0.95538795  0.31736765     0.02500
C364        C  0.44490426  0.94621717  0.32535119     0.08500
C365        C  0.45054032  0.95132519  0.33500657    -0.04600
H366        H  0.43961029  0.95482756  0.30857711     0.09200
H367        H  0.45375568  0.94682481  0.34283054     0.10400
Cu368      Cu  0.44976416  0.98151875  0.31376807     0.44200
Cu369      Cu  0.46168157  0.97532117  0.34257117     0.42000
Cu370      Cu  0.46796262  0.00365689  0.32781243     0.43900
N371        N  0.45451609  0.99723860  0.30568172    -0.33300
N372        N  0.46132810  0.00534282  0.31066111    -0.27500
C373        C  0.46347729  0.01395275  0.30269749    -0.03600
C374        C  0.45775212  0.01110225  0.29217240     0.08600
C375        C  0.45215864  0.00043497  0.29447281     0.02400
H376        H  0.46895159  0.02161457  0.30442553     0.10100
H377        H  0.44722165  0.99503937  0.28828547     0.09100
N378        N  0.47338029  0.99941910  0.34495384    -0.34700
N379        N  0.47106053  0.98923409  0.35025379    -0.26900
C380        C  0.47543897  0.98955748  0.36133029    -0.02100
C381        C  0.48076971  0.00046599  0.36316809     0.06500
C382        C  0.47931346  0.00645503  0.35254405     0.04600
H383        H  0.47473231  0.98235090  0.36759012     0.09700
H384        H  0.48199991  0.01543230  0.35057997     0.08500
N385        N  0.69046045  0.32266376  0.58507525    -0.25900
N386        N  0.69163263  0.32428171  0.57355665    -0.33700
C387        C  0.68132044  0.32819441  0.56907801     0.02500
C388        C  0.67316938  0.32908059  0.57818345     0.08500
C389        C  0.67931763  0.32551852  0.58822541    -0.04600
H390        H  0.67994343  0.33036259  0.55985571     0.09200
H391        H  0.67591088  0.32482296  0.59713421     0.10400
Cu392      Cu  0.70709148  0.32103594  0.56426768     0.44200
Cu393      Cu  0.70413160  0.31645039  0.59580237     0.42000
Cu394      Cu  0.73266953  0.31240836  0.58111887     0.43900
N395        N  0.72340687  0.31743603  0.55673518    -0.33300
N396        N  0.73297279  0.31475960  0.56294516    -0.27500
C397        C  0.74207258  0.31291748  0.55548738    -0.03600
C398        C  0.73794370  0.31434516  0.54404600     0.08600
C399        C  0.72608941  0.31718519  0.54516047     0.02400
H400        H  0.75088436  0.31025963  0.55816654     0.10100
H401        H  0.71985219  0.31886695  0.53807622     0.09100
N402        N  0.72953894  0.30839793  0.59873012    -0.34700
N403        N  0.71923641  0.30982041  0.60409185    -0.26900
C404        C  0.72023834  0.30603904  0.61534488    -0.02100
C405        C  0.73170649  0.30199077  0.61714732     0.06500
C406        C  0.73732254  0.30364159  0.60639231     0.04600
H407        H  0.71305183  0.30601225  0.62165847     0.09700
H408        H  0.74643811  0.30162626  0.60426900     0.08500
N409        N  0.82141752  0.32082174  0.42037567    -0.25900
N410        N  0.82064854  0.32197682  0.43197533    -0.33700
C411        C  0.83045559  0.32723865  0.43608493     0.02500
C412        C  0.83785537  0.32954709  0.42664587     0.08500
C413        C  0.83189110  0.32527379  0.41678182    -0.04600
H414        H  0.83215121  0.32904368  0.44533627     0.09200
H415        H  0.83486606  0.32548643  0.40769330     0.10400
Cu416      Cu  0.80648245  0.31638974  0.44192818     0.44200
Cu417      Cu  0.80785390  0.31326980  0.41047604     0.42000
Cu418      Cu  0.78117675  0.30427587  0.42742826     0.43900
N419        N  0.79150197  0.31127096  0.45088755    -0.33300
N420        N  0.78192231  0.30704723  0.44566848    -0.27500
C421        C  0.77357931  0.30516357  0.45397571    -0.03600
C422        C  0.77824941  0.30828497  0.46492641     0.08600
C423        C  0.78962016  0.31211139  0.46257455     0.02400
H424        H  0.76480807  0.30175763  0.45218267     0.10100
H425        H  0.79596727  0.31561579  0.46884222     0.09100
N426        N  0.78343227  0.30200262  0.40923643    -0.34700
N427        N  0.79295686  0.30520470  0.40322596    -0.26900
C428        C  0.79151183  0.30216724  0.39180606    -0.02100
C429        C  0.78056423  0.29677068  0.39048005     0.06500
C430        C  0.77570792  0.29685642  0.40175184     0.04600
H431        H  0.79812895  0.30354514  0.38504275     0.09700
H432        H  0.76713670  0.29350543  0.40436594     0.08500
N433        N  0.06865861  0.19743522  0.46560026    -0.25900
N434        N  0.06761826  0.20898318  0.46410649    -0.33700
C435        C  0.07772869  0.21325007  0.45958449     0.02500
C436        C  0.08573522  0.20399783  0.45829797     0.08500
C437        C  0.07958303  0.19407743  0.46222396    -0.04600
H438        H  0.07900143  0.22246603  0.45737918     0.09200
H439        H  0.08282035  0.18509270  0.46288620     0.10400
Cu440      Cu  0.05282763  0.21872869  0.46877382     0.44200
Cu441      Cu  0.05500342  0.18689648  0.47199597     0.42000
Cu442      Cu  0.02740588  0.20247671  0.47850350     0.43900
N443        N  0.03716538  0.22673957  0.47385708    -0.33300
N444        N  0.02766077  0.22075318  0.47708701    -0.27500
C445        C  0.01879339  0.22841217  0.47924005    -0.03600
C446        C  0.02298466  0.23977738  0.47738504     0.08600
C447        C  0.03467149  0.23837591  0.47400516     0.02400
H448        H  0.00997782  0.22588585  0.48197736     0.10100
H449        H  0.04080459  0.24527450  0.47146710     0.09100
N450        N  0.02967518  0.18436088  0.48027717    -0.34700
N451        N  0.03966945  0.17869430  0.47801755    -0.26900
C452        C  0.03821846  0.16714742  0.48054865    -0.02100
C453        C  0.02676600  0.16545015  0.48463146     0.06500
C454        C  0.02162826  0.17658697  0.48430547     0.04600
H455        H  0.04504780  0.16050743  0.47951652     0.09700
H456        H  0.01282035  0.17898487  0.48718552     0.08500
N457        N  0.93648464  0.36008039  0.45680477    -0.25900
N458        N  0.93700356  0.34854227  0.45872365    -0.33700
C459        C  0.92692068  0.34345586  0.45510168     0.02500
C460        C  0.91960954  0.35213127  0.45058837     0.08500
C461        C  0.92594636  0.36260881  0.45173015    -0.04600
H462        H  0.92512856  0.33405644  0.45557844     0.09200
H463        H  0.92301892  0.37140667  0.44930794     0.10400
Cu464      Cu  0.95133092  0.33962328  0.46549908     0.44200
Cu465      Cu  0.95019312  0.37148803  0.46182234     0.42000
Cu466      Cu  0.97734031  0.35553592  0.47117722     0.43900
N467        N  0.96692988  0.33138067  0.46989068    -0.33300
N468        N  0.97687824  0.33723573  0.47164155    -0.27500
C469        C  0.98564220  0.32943400  0.47375762    -0.03600
C470        C  0.98087296  0.31812579  0.47336136     0.08600
C471        C  0.96899039  0.31972419  0.47087692     0.02400
H472        H  0.99474515  0.33182318  0.47555146     0.10100
H473        H  0.96237574  0.31292391  0.46955886     0.09100
N474        N  0.97496138  0.37368339  0.47208458    -0.34700
N475        N  0.96528804  0.37954908  0.46896745    -0.26900
C476        C  0.96684352  0.39110297  0.47158344    -0.02100
C477        C  0.97803926  0.39252689  0.47648976     0.06500
C478        C  0.98286251  0.38128347  0.47666086     0.04600
H479        H  0.96030330  0.39793772  0.47003760     0.09700
H480        H  0.99137946  0.37869984  0.48022341     0.08500
N481        N  0.43890385  0.19218206  0.55179534    -0.25900
N482        N  0.44129274  0.20288492  0.55588569    -0.33700
C483        C  0.43201575  0.20694924  0.56206371     0.02500
C484        C  0.42321277  0.19848022  0.56186283     0.08500
C485        C  0.42785482  0.18921388  0.55521841    -0.04600
H486        H  0.43152560  0.21569837  0.56593646     0.09200
H487        H  0.42349162  0.18099986  0.55293624     0.10400
Cu488      Cu  0.45634284  0.21232763  0.55203737     0.44200
Cu489      Cu  0.45091245  0.18261044  0.54139798     0.42000
Cu490      Cu  0.47760705  0.19933402  0.53303663     0.43900
N491        N  0.47116719  0.22116928  0.54635492    -0.33300
N492        N  0.47926143  0.21632418  0.53950709    -0.27500
C493        C  0.48782715  0.22429765  0.53741060    -0.03600
C494        C  0.48488450  0.23478247  0.54313217     0.08600
C495        C  0.47419736  0.23240332  0.54866902     0.02400
H496        H  0.49560045  0.22248099  0.53215478     0.10100
H497        H  0.46876673  0.23840238  0.55376611     0.09100
N498        N  0.47415062  0.18213652  0.52793266    -0.34700
N499        N  0.46478179  0.17587614  0.53108755    -0.26900
C500        C  0.46600228  0.16481027  0.52678138    -0.02100
C501        C  0.47663030  0.16409808  0.52060532     0.06500
C502        C  0.48144845  0.17533214  0.52149661     0.04600
H503        H  0.45978575  0.15772009  0.52840627     0.09700
H504        H  0.48972557  0.17842342  0.51784661     0.08500
N505        N  0.57146163  0.35706506  0.55593742    -0.25900
N506        N  0.56982145  0.34604536  0.55946762    -0.33700
C507        C  0.57966754  0.34210055  0.56483507     0.02500
C508        C  0.58803341  0.35104791  0.56473925     0.08500
C509        C  0.58249304  0.36044038  0.55900029    -0.04600
H510        H  0.58084702  0.33311705  0.56794540     0.09200
H511        H  0.58625508  0.36899474  0.55693808     0.10400
Cu512      Cu  0.55487370  0.33632449  0.55574891     0.44200
Cu513      Cu  0.55873099  0.36633944  0.54628211     0.42000
Cu514      Cu  0.53190654  0.34981673  0.53819929     0.43900
N515        N  0.54008989  0.32740678  0.54995252    -0.33300
N516        N  0.53160735  0.33224542  0.54350576    -0.27500
C517        C  0.52355464  0.32388665  0.54083906    -0.03600
C518        C  0.52720795  0.31326754  0.54583554     0.08600
C519        C  0.53773247  0.31588116  0.55154134     0.02400
H520        H  0.51566079  0.32546159  0.53563903     0.10100
H521        H  0.54350732  0.30980786  0.55619357     0.09100
N522        N  0.53495341  0.36736728  0.53371432    -0.34700
N523        N  0.54465348  0.37330301  0.53653931    -0.26900
C524        C  0.54372442  0.38439812  0.53229971    -0.02100
C525        C  0.53291703  0.38554753  0.52656386     0.06500
C526        C  0.52760830  0.37454344  0.52765294     0.04600
H527        H  0.55033020  0.39121224  0.53357844     0.09700
H528        H  0.51905841  0.37188597  0.52424189     0.08500
N529        N  0.32387338  0.22903986  0.59043298    -0.25900
N530        N  0.32125084  0.22239318  0.58116282    -0.33700
C531        C  0.33084833  0.21610849  0.57802736     0.02500
C532        C  0.34003496  0.21899544  0.58559366     0.08500
C533        C  0.33531750  0.22726610  0.59333873    -0.04600
H534        H  0.33129723  0.21038275  0.57036425     0.09200
H535        H  0.33990659  0.23181049  0.60041515     0.10400
Cu536      Cu  0.30538455  0.22335601  0.57204617     0.44200
Cu537      Cu  0.31167784  0.24035541  0.59836632     0.42000
Cu538      Cu  0.28349099  0.24381087  0.58291059     0.43900
N539        N  0.29016805  0.22771244  0.56280790    -0.33300
N540        N  0.28216329  0.23528735  0.56671428    -0.27500
C541        C  0.27385888  0.23684404  0.55831114    -0.03600
C542        C  0.27682169  0.22996559  0.54857988     0.08600
C543        C  0.28721870  0.22428245  0.55180790     0.02400
H544        H  0.26633655  0.24270279  0.55920384     0.10100
H545        H  0.29259869  0.21852559  0.54637197     0.09100
N546        N  0.28709205  0.25099513  0.59941832    -0.34700
N547        N  0.29731197  0.24979547  0.60502515    -0.26900
C548        C  0.29647672  0.25498003  0.61571184    -0.02100
C549        C  0.28518065  0.25966239  0.61693064     0.06500
C550        C  0.27951137  0.25697317  0.60637510     0.04600
H551        H  0.30344562  0.25489334  0.62228980     0.09700
H552        H  0.27049077  0.25908026  0.60392406     0.08500
N553        N  0.18850551  0.21944611  0.42887518    -0.25900
N554        N  0.19122705  0.21484652  0.43927903    -0.33700
C555        C  0.18146258  0.21032907  0.44425961     0.02500
C556        C  0.17198404  0.21223087  0.43673073     0.08500
C557        C  0.17680647  0.21796315  0.42698227    -0.04600
H558        H  0.18127298  0.20634433  0.45295706     0.09200
H559        H  0.17206489  0.22142015  0.41940417     0.10400
Cu560      Cu  0.20745512  0.21647003  0.44740364     0.44200
Cu561      Cu  0.20087215  0.22846145  0.41853917     0.42000
Cu562      Cu  0.23016470  0.23230308  0.43256008     0.43900
N563        N  0.22301895  0.22131318  0.45554582    -0.33300
N564        N  0.23159389  0.22708170  0.45011238    -0.27500
C565        C  0.24017330  0.22958898  0.45801692    -0.03600
C566        C  0.23668733  0.22529581  0.46896059     0.08600
C567        C  0.22578215  0.22009030  0.46703324     0.02400
H568        H  0.24806411  0.23464302  0.45606692     0.10100
H569        H  0.22013923  0.21591909  0.47353660     0.09100
N570        N  0.22582676  0.23800979  0.41562569    -0.34700
N571        N  0.21529234  0.23687576  0.41061086    -0.26900
C572        C  0.21563116  0.24186812  0.39979281    -0.02100
C573        C  0.22693151  0.24634262  0.39785034     0.06500
C574        C  0.23311045  0.24366484  0.40812859     0.04600
H575        H  0.20811046  0.24230657  0.39387313     0.09700
H576        H  0.24231467  0.24548568  0.41002678     0.08500
N577        N  0.70712026  0.94225091  0.68752469    -0.25900
N578        N  0.70547042  0.95382427  0.68772914    -0.33700
C579        C  0.70048463  0.95726105  0.67750932     0.02500
C580        C  0.69889554  0.94738690  0.67043068     0.08500
C581        C  0.70325577  0.93799371  0.67706712    -0.04600
H582        H  0.69860397  0.96637667  0.67523501     0.09200
H583        H  0.70370253  0.92878530  0.67447335     0.10400
Cu584      Cu  0.71064295  0.96459730  0.70154204     0.44200
Cu585      Cu  0.71508384  0.93330107  0.70148580     0.42000
Cu586      Cu  0.72425806  0.95154998  0.72713291     0.43900
N587        N  0.71606339  0.97429123  0.71604021    -0.33300
N588        N  0.72101893  0.96964432  0.72556484    -0.27500
C589        C  0.72316201  0.97837867  0.73341149    -0.03600
C590        C  0.71929500  0.98901227  0.72856235     0.08600
C591        C  0.71490615  0.98602311  0.71752201     0.02400
H592        H  0.72695906  0.97702737  0.74210233     0.10100
H593        H  0.71113365  0.99192274  0.71098236     0.09100
N594        N  0.72688028  0.93334001  0.72567626    -0.34700
N595        N  0.72371001  0.92687513  0.71642471    -0.26900
C596        C  0.72708030  0.91559751  0.71824128    -0.02100
C597        C  0.73261143  0.91486678  0.72915870     0.06500
C598        C  0.73228382  0.92628879  0.73363215     0.04600
H599        H  0.72548955  0.90843429  0.71208595     0.09700
H600        H  0.73592301  0.92932887  0.74195585     0.08500
N601        N  0.71234230  0.10737131  0.81881588    -0.25900
N602        N  0.71131949  0.09584046  0.81712238    -0.33700
C603        C  0.70698419  0.09079892  0.82694964     0.02500
C604        C  0.70515621  0.09954082  0.83532970     0.08500
C605        C  0.70862797  0.10997475  0.82983992    -0.04600
H606        H  0.70507499  0.08145265  0.82780262     0.09200
H607        H  0.70860887  0.11878072  0.83360458     0.10400
Cu608      Cu  0.71537957  0.08731922  0.80149250     0.44200
Cu609      Cu  0.71881101  0.11876599  0.80586400     0.42000
Cu610      Cu  0.72518476  0.10472567  0.77709474     0.43900
N611        N  0.71849595  0.08032397  0.78492130    -0.33300
N612        N  0.72208650  0.08665224  0.77578767    -0.27500
C613        C  0.72298190  0.07951292  0.76627396    -0.03600
C614        C  0.71967278  0.06816351  0.76961950     0.08600
C615        C  0.71694657  0.06905031  0.78151748     0.02400
H616        H  0.72559474  0.08242860  0.75754598     0.10100
H617        H  0.71409116  0.06200745  0.78733595     0.09100
N618        N  0.72812299  0.12245716  0.78100438    -0.34700
N619        N  0.72589611  0.12756373  0.79130267    -0.26900
C620        C  0.72935691  0.13896503  0.79078654    -0.02100
C621        C  0.73403847  0.14113370  0.77965581     0.06500
C622        C  0.73303190  0.13045222  0.77371151     0.04600
H623        H  0.72884723  0.14509543  0.79812275     0.09700
H624        H  0.73570489  0.12855807  0.76472595     0.08500
N625        N  0.67272235  0.97645399  0.57094295    -0.25900
N626        N  0.68384528  0.97406875  0.56830067    -0.33700
C627        C  0.68909847  0.96873016  0.57751692     0.02500
C628        C  0.68092340  0.96766635  0.58655264     0.08500
C629        C  0.67059112  0.97267978  0.58204687    -0.04600
H630        H  0.69817852  0.96568748  0.57748707     0.09200
H631        H  0.66219134  0.97365310  0.58651992     0.10400
Cu632      Cu  0.69150066  0.97817916  0.55238172     0.44200
Cu633      Cu  0.66133627  0.98444078  0.55878018     0.42000
Cu634      Cu  0.67434783  0.99089252  0.52913423     0.43900
N635        N  0.69867205  0.98342643  0.53657286    -0.33300
N636        N  0.69256139  0.98809649  0.52775849    -0.27500
C637        C  0.70015662  0.99105477  0.51903632    -0.03600
C638        C  0.71155649  0.98820162  0.52272657     0.08600
C639        C  0.71020139  0.98332423  0.53383471     0.02400
H640        H  0.69764011  0.99539805  0.51087795     0.10100
H641        H  0.71711579  0.98008754  0.53963596     0.09100
N642        N  0.65664789  0.99348974  0.53380613    -0.34700
N643        N  0.65207364  0.99145461  0.54439991    -0.26900
C644        C  0.64052881  0.99446489  0.54424809    -0.02100
C645        C  0.63764274  0.99852105  0.53303533     0.06500
C646        C  0.64809607  0.99776089  0.52667589     0.04600
H647        H  0.63463813  0.99359787  0.55173319     0.09700
H648        H  0.64947426  0.00035908  0.51757073     0.08500
N649        N  0.83553800  0.98371946  0.43948499    -0.25900
N650        N  0.82400927  0.98187952  0.44020081    -0.33700
C651        C  0.81992898  0.97826721  0.42964359     0.02500
C652        C  0.82931145  0.97781896  0.42180302     0.08500
C653        C  0.83911546  0.98127318  0.42837587    -0.04600
H654        H  0.81074181  0.97625754  0.42780187     0.09200
H655        H  0.84808388  0.98237517  0.42521494     0.10400
Cu656      Cu  0.81407711  0.98493549  0.45521307     0.44200
Cu657      Cu  0.84541322  0.99013731  0.45367589     0.42000
Cu658      Cu  0.82923125  0.99388048  0.48167170     0.43900
N659        N  0.80551244  0.98847088  0.47094358    -0.33300
N660        N  0.81104354  0.99129078  0.48086644    -0.27500
C661        C  0.80295012  0.99286435  0.48946317    -0.03600
C662        C  0.79181835  0.99112264  0.48460226     0.08600
C663        C  0.79378260  0.98835700  0.47286720     0.02400
H664        H  0.80498875  0.99542525  0.49846311     0.10100
H665        H  0.78717595  0.98634185  0.46621982     0.09100
N666        N  0.84703129  0.99787522  0.47934582    -0.34700
N667        N  0.85283499  0.99663592  0.46926220    -0.26900
C668        C  0.86405758  0.00032412  0.47081282    -0.02100
C669        C  0.86541959  0.00408078  0.48241996     0.06500
C670        C  0.85441043  0.00239082  0.48754092     0.04600
H671        H  0.87067045  0.00043563  0.46390394     0.09700
H672        H  0.85192938  0.00418868  0.49660224     0.08500
N673        N  0.80684447  0.11089568  0.17874062    -0.25900
N674        N  0.80945707  0.09967383  0.18078843    -0.33700
C675        C  0.81324712  0.09457712  0.17078245     0.02500
C676        C  0.81304588  0.10292258  0.16186428     0.08500
C677        C  0.80902289  0.11324988  0.16722799    -0.04600
H678        H  0.81573078  0.08535212  0.17002538     0.09200
H679        H  0.80732417  0.12166609  0.16297852     0.10400
Cu680      Cu  0.80683141  0.09113134  0.19661674     0.44200
Cu681      Cu  0.79961491  0.12171768  0.19192567     0.42000
Cu682      Cu  0.79283468  0.10602562  0.22022260     0.43900
N683        N  0.80233300  0.08275388  0.21210118    -0.33300
N684        N  0.79691463  0.08807486  0.22096259    -0.27500
C685        C  0.79511695  0.08011002  0.22966439    -0.03600
C686        C  0.79973536  0.06929109  0.22604110     0.08600
C687        C  0.80417258  0.07135201  0.21483791     0.02400
H688        H  0.79101627  0.08211416  0.23807084     0.10100
H689        H  0.80834107  0.06501247  0.20899853     0.09100
N690        N  0.79031863  0.12403178  0.21713820    -0.34700
N691        N  0.79254319  0.12966905  0.20710285    -0.26900
C692        C  0.78962581  0.14117493  0.20844410    -0.02100
C693        C  0.78547987  0.14287896  0.21987032     0.06500
C694        C  0.78605403  0.13180028  0.22507325     0.04600
H695        H  0.79058655  0.14782823  0.20162828     0.09700
H696        H  0.78333480  0.12946541  0.23394266     0.08500
N697        N  0.81084280  0.95206108  0.31853482    -0.25900
N698        N  0.81477522  0.96270223  0.31574456    -0.33700
C699        C  0.81959772  0.96777026  0.32534225     0.02500
C700        C  0.81852310  0.96007994  0.33484674     0.08500
C701        C  0.81295880  0.95013922  0.33011800    -0.04600
H702        H  0.82336115  0.97656215  0.32532836     0.09200
H703        H  0.81012667  0.94230398  0.33482045     0.10400
Cu704      Cu  0.81201988  0.97074723  0.29958384     0.44200
Cu705      Cu  0.80226666  0.94119390  0.30630869     0.42000
Cu706      Cu  0.79653083  0.95497244  0.27716963     0.43900
N707        N  0.80682200  0.97837736  0.28382008    -0.33300
N708        N  0.80106633  0.97263238  0.27542927    -0.27500
C709        C  0.79874564  0.98014772  0.26646878    -0.03600
C710        C  0.80329761  0.99118441  0.26940411     0.08600
C711        C  0.80829613  0.98968064  0.28050684     0.02400
H712        H  0.79416438  0.97770336  0.25841948     0.10100
H713        H  0.81246145  0.99635924  0.28596308     0.09100
N714        N  0.79242717  0.93765799  0.28154179    -0.34700
N715        N  0.79432633  0.93266989  0.29196874    -0.26900
C716        C  0.79022286  0.92148373  0.29165074    -0.02100
C717        C  0.78549627  0.91933542  0.28050756     0.06500
C718        C  0.78712221  0.92980746  0.27435910     0.04600
H719        H  0.79043415  0.91547720  0.29910121     0.09700
H720        H  0.78470906  0.93164176  0.26527882     0.08500
N721        N  0.67161348  0.07301450  0.93411888    -0.25900
N722        N  0.68317045  0.07418017  0.93544196    -0.33700
C723        C  0.68780841  0.07876653  0.92554262     0.02500
C724        C  0.67875510  0.08055144  0.91749887     0.08500
C725        C  0.66857452  0.07670850  0.92317619    -0.04600
H726        H  0.69713414  0.08051674  0.92424452     0.09200
H727        H  0.65963587  0.07680718  0.91971608     0.10400
Cu728      Cu  0.69213799  0.06943818  0.95058454     0.44200
Cu729      Cu  0.66101580  0.06704087  0.94789022     0.42000
Cu730      Cu  0.67583488  0.06110440  0.97667160     0.43900
N731        N  0.70009724  0.06454034  0.96623090    -0.33300
N732        N  0.69433426  0.06172903  0.97599833    -0.27500
C733        C  0.70232854  0.05916666  0.98451360    -0.03600
C734        C  0.71361256  0.06032685  0.97975988     0.08600
C735        C  0.71179259  0.06376707  0.96817320     0.02400
H736        H  0.70009401  0.05644512  0.99340886     0.10100
H737        H  0.71848147  0.06575423  0.96163012     0.09100
N738        N  0.65757780  0.05988784  0.97367172    -0.34700
N739        N  0.65244190  0.06183381  0.96330440    -0.26900
C740        C  0.64081398  0.05949210  0.96419624    -0.02100
C741        C  0.63840684  0.05585312  0.97563503     0.06500
C742        C  0.64925552  0.05628668  0.98141922     0.04600
H743        H  0.63459951  0.06022518  0.95693732     0.09700
H744        H  0.65107871  0.05362641  0.99043652     0.08500
N745        N  0.83757696  0.06989585  0.06205999    -0.25900
N746        N  0.82605305  0.07153085  0.06076051    -0.33700
C747        C  0.82176869  0.07723966  0.07024965     0.02500
C748        C  0.83096694  0.07925442  0.07806054     0.08500
C749        C  0.84088968  0.07443181  0.07260866    -0.04600
H750        H  0.81250687  0.07929071  0.07158863     0.09200
H751        H  0.84981426  0.07414572  0.07609349     0.10400
Cu752      Cu  0.81621936  0.06528189  0.04671500     0.44200
Cu753      Cu  0.84791500  0.06142325  0.04919581     0.42000
Cu754      Cu  0.83143831  0.05320819  0.02209682     0.43900
N755        N  0.80757734  0.05913550  0.03187209    -0.33300
N756        N  0.81315813  0.05510030  0.02244173    -0.27500
C757        C  0.80512259  0.05265269  0.01396210    -0.03600
C758        C  0.79396184  0.05513796  0.01841238     0.08600
C759        C  0.79587264  0.05920331  0.02978354     0.02400
H760        H  0.80724069  0.04934611  0.00523418     0.10100
H761        H  0.78927761  0.06241683  0.03593096     0.09100
N762        N  0.84955450  0.05102527  0.02442520    -0.34700
N763        N  0.85553350  0.05362171  0.03417948    -0.26900
C764        C  0.86701280  0.05076099  0.03250258    -0.02100
C765        C  0.86830747  0.04627265  0.02113646     0.06500
C766        C  0.85704078  0.04658002  0.01632985     0.04600
H767        H  0.87394730  0.05210644  0.03898208     0.09700
H768        H  0.85441169  0.04365254  0.00759713     0.08500
N769        N  0.51661597  0.00834932  0.04972853    -0.25900
N770        N  0.52447870  0.01692545  0.04851148    -0.33700
C771        C  0.52332891  0.02460666  0.05752973     0.02500
C772        C  0.51426207  0.02073606  0.06479310     0.08500
C773        C  0.51017883  0.01041199  0.05953303    -0.04600
H774        H  0.52870684  0.03244802  0.05868405     0.09200
H775        H  0.50327506  0.00463066  0.06277288     0.10400
Cu776      Cu  0.53667167  0.01766619  0.03485795     0.44200
Cu777      Cu  0.51556988  0.99392789  0.03829497     0.42000
Cu778      Cu  0.53781782  0.99286480  0.01478734     0.43900
N779        N  0.54859119  0.01648230  0.02099727    -0.33300
N780        N  0.54919325  0.00738047  0.01367293    -0.27500
C781        C  0.55812990  0.00922985  0.00600392    -0.03600
C782        C  0.56338636  0.02004918  0.00862044     0.08600
C783        C  0.55705784  0.02434774  0.01819295     0.02400
H784        H  0.56058628  0.00314034  0.99904019     0.10100
H785        H  0.55870614  0.03243752  0.02304712     0.09100
N786        N  0.52504948  0.97981296  0.01759569    -0.34700
N787        N  0.51694360  0.98024715  0.02601621    -0.26900
C788        C  0.50989298  0.97067810  0.02509649    -0.02100
C789        C  0.51368692  0.96384076  0.01562255     0.06500
C790        C  0.52336201  0.96994328  0.01113413     0.04600
H791        H  0.50234028  0.96903992  0.03072907     0.09700
H792        H  0.52882868  0.96743358  0.00370111     0.08500
N793        N  0.55002630  0.03724849  0.48315106    -0.25900
N794        N  0.55021862  0.04640363  0.49045217    -0.33700
C795        C  0.55866875  0.04463272  0.49868246     0.02500
C796        C  0.56409726  0.03382415  0.49652963     0.08500
C797        C  0.55835599  0.02941846  0.48658275    -0.04600
H798        H  0.56055195  0.05071303  0.50583517     0.09200
H799        H  0.56019958  0.02119791  0.48203156     0.10400
Cu800      Cu  0.53883477  0.06085791  0.48923524     0.44200
Cu801      Cu  0.53839980  0.03570876  0.46884067     0.42000
Cu802      Cu  0.51636797  0.05891874  0.46671790     0.43900
N803        N  0.52578534  0.07365194  0.48679869    -0.33300
N804        N  0.51742680  0.07277769  0.47865693    -0.27500
C805        C  0.51016137  0.08217719  0.47946757    -0.03600
C806        C  0.51411451  0.08941673  0.48856795     0.08600
C807        C  0.52407890  0.08368406  0.49299533     0.02400
H808        H  0.50243554  0.08347099  0.47394757     0.10100
H809        H  0.52976655  0.08659236  0.50013077     0.09100
N810        N  0.51757233  0.04499654  0.45486466    -0.34700
N811        N  0.52563580  0.03652907  0.45547189    -0.26900
C812        C  0.52418915  0.02920564  0.44616338    -0.02100
C813        C  0.51477504  0.03329239  0.43934302     0.06500
C814        C  0.51080786  0.04330537  0.44521918     0.04600
H815        H  0.52980050  0.02165973  0.44434439     0.09700
H816        H  0.50351392  0.04899589  0.44271877     0.08500
N817        N  0.68560616  0.73810509  0.93268334    -0.25900
N818        N  0.68732558  0.73841884  0.94423492    -0.33700
C819        C  0.67808517  0.73337394  0.94970485     0.02500
C820        C  0.67002005  0.72974126  0.94120643     0.08500
C821        C  0.67511749  0.73289821  0.93048599    -0.04600
H822        H  0.67742710  0.73233506  0.95919092     0.09200
H823        H  0.67142572  0.73170889  0.92173128     0.10400
Cu824      Cu  0.70208134  0.74559935  0.95215873     0.44200
Cu825      Cu  0.69788311  0.74456614  0.92065863     0.42000
Cu826      Cu  0.72630121  0.75380779  0.93355560     0.43900
N827        N  0.71798091  0.75173000  0.95859275    -0.33300
N828        N  0.72717763  0.75426170  0.95185512    -0.27500
C829        C  0.73643365  0.75705881  0.95883691    -0.03600
C830        C  0.73275228  0.75637788  0.97050128     0.08600
C831        C  0.72102176  0.75298812  0.96999681     0.02400
H832        H  0.74516326  0.75936613  0.95566384     0.10100
H833        H  0.71524955  0.75107915  0.97738241     0.09100
N834        N  0.72243442  0.75397633  0.91562466    -0.34700
N835        N  0.71217045  0.75080489  0.91094407    -0.26900
C836        C  0.71269416  0.75222358  0.89913786    -0.02100
C837        C  0.72383220  0.75646596  0.89623331     0.06500
C838        C  0.72973050  0.75748908  0.90693884     0.04600
H839        H  0.70552606  0.75014279  0.89312876     0.09700
H840        H  0.73860877  0.76077490  0.90838764     0.08500
N841        N  0.82618268  0.74092895  0.08531014    -0.25900
N842        N  0.82400522  0.73999943  0.07387092    -0.33700
C843        C  0.83368538  0.73598350  0.06834599     0.02500
C844        C  0.84259761  0.73441962  0.07663114     0.08500
C845        C  0.83746883  0.73761727  0.08735124    -0.04600
H846        H  0.83404929  0.73422580  0.05895472     0.09200
H847        H  0.84162404  0.73773794  0.09597579     0.10400
Cu848      Cu  0.80831957  0.74462092  0.06587109     0.44200
Cu849      Cu  0.81338943  0.74654381  0.09728147     0.42000
Cu850      Cu  0.78419016  0.75315307  0.08390048     0.43900
N851        N  0.79231956  0.74993446  0.05901547    -0.33300
N852        N  0.78313494  0.75279289  0.06563066    -0.27500
C853        C  0.77395222  0.75555630  0.05853701    -0.03600
C854        C  0.77768011  0.75449835  0.04691544     0.08600
C855        C  0.78935652  0.75092104  0.04756381     0.02400
H856        H  0.76529972  0.75827740  0.06160323     0.10100
H857        H  0.79521419  0.74895025  0.04025933     0.09100
N858        N  0.78808176  0.75427784  0.10177134    -0.34700
N859        N  0.79853518  0.75210892  0.10663083    -0.26900
C860        C  0.79790233  0.75439390  0.11830352    -0.02100
C861        C  0.78650966  0.75814354  0.12089762     0.06500
C862        C  0.78056388  0.75794937  0.11019234     0.04600
H863        H  0.80522949  0.75344659  0.12441258     0.09700
H864        H  0.77153954  0.76070917  0.10852356     0.08500
N865        N  0.56966700  0.69569931  0.96143678    -0.25900
N866        N  0.56800943  0.70712873  0.95955434    -0.33700
C867        C  0.57818066  0.71197520  0.95579613     0.02500
C868        C  0.58672051  0.70320431  0.95536451     0.08500
C869        C  0.58103283  0.69298423  0.95905435    -0.04600
H870        H  0.57936765  0.72129314  0.95391564     0.09200
H871        H  0.58485618  0.68424308  0.95995770     0.10400
Cu872      Cu  0.55228689  0.71584159  0.96296801     0.44200
Cu873      Cu  0.55624396  0.68461997  0.96730683     0.42000
Cu874      Cu  0.52722725  0.69854738  0.97231604     0.43900
N875        N  0.53615652  0.72316916  0.96753114    -0.33300
N876        N  0.52676038  0.71690726  0.97058418    -0.27500
C877        C  0.51775132  0.72438818  0.97291161    -0.03600
C878        C  0.52179534  0.73587629  0.97142181     0.08600
C879        C  0.53348022  0.73474925  0.96801028     0.02400
H880        H  0.50902871  0.72168804  0.97578119     0.10100
H881        H  0.53958612  0.74183144  0.96595194     0.09100
N882        N  0.53088608  0.68066150  0.97506351    -0.34700
N883        N  0.54134808  0.67568747  0.97330950    -0.26900
C884        C  0.54079974  0.66422276  0.97649157    -0.02100
C885        C  0.52946613  0.66180442  0.98050107     0.06500
C886        C  0.52343282  0.67246683  0.97942352     0.04600
H887        H  0.54826737  0.65822274  0.97630186     0.09700
H888        H  0.51430539  0.67421659  0.98171363     0.08500
N889        N  0.43696361  0.85812587  0.95784474    -0.25900
N890        N  0.43890960  0.84714165  0.95429172    -0.33700
C891        C  0.42903010  0.84282854  0.94927961     0.02500
C892        C  0.42034500  0.85143913  0.94975776     0.08500
C893        C  0.42567177  0.86103758  0.95527828    -0.04600
H894        H  0.42804688  0.83382303  0.94616288     0.09200
H895        H  0.42159049  0.86941960  0.95748578     0.10400
Cu896      Cu  0.45413998  0.83766882  0.95784162     0.44200
Cu897      Cu  0.44969778  0.86827018  0.96655010     0.42000
Cu898      Cu  0.47710047  0.85244725  0.97376913     0.43900
N899        N  0.46890075  0.82902572  0.96432037    -0.33300
N900        N  0.47754808  0.83446871  0.97001992    -0.27500
C901        C  0.48564718  0.82639278  0.97341059    -0.03600
C902        C  0.48177380  0.81532500  0.96980836     0.08600
C903        C  0.47113647  0.81734211  0.96406700     0.02400
H904        H  0.49353940  0.82837876  0.97847164     0.10100
H905        H  0.46540429  0.81080102  0.96004671     0.09100
N906        N  0.47413139  0.87021414  0.97743292    -0.34700
N907        N  0.46427747  0.87600426  0.97484683    -0.26900
C908        C  0.46547259  0.88735507  0.97830910    -0.02100
C909        C  0.47661821  0.88880680  0.98333797     0.06500
C910        C  0.48179361  0.87768700  0.98263893     0.04600
H911        H  0.45878869  0.89409206  0.97698399     0.09700
H912        H  0.49046899  0.87510695  0.98577581     0.08500
N913        N  0.93901202  0.70135134  0.04244469    -0.25900
N914        N  0.94084913  0.71283786  0.04368353    -0.33700
C915        C  0.93181944  0.71763571  0.04969806     0.02500
C916        C  0.92381827  0.70878272  0.05235198     0.08500
C917        C  0.92862516  0.69854921  0.04756224    -0.04600
H918        H  0.93093379  0.72698905  0.05157515     0.09200
H919        H  0.92486580  0.68974353  0.04774781     0.10400
Cu920      Cu  0.95505377  0.72182274  0.03664546     0.44200
Cu921      Cu  0.95095432  0.69025816  0.03397682     0.42000
Cu922      Cu  0.97834416  0.70479653  0.02400304     0.43900
N923        N  0.96985235  0.72937752  0.02917019    -0.33300
N924        N  0.97873775  0.72313561  0.02484159    -0.27500
C925        C  0.98731671  0.73060048  0.02130282    -0.03600
C926        C  0.98350922  0.74207848  0.02338654     0.08600
C927        C  0.97240595  0.74095776  0.02836341     0.02400
H928        H  0.99568917  0.72788058  0.01753985     0.10100
H929        H  0.96677903  0.74801583  0.03157312     0.09100
N930        N  0.97516849  0.68672483  0.02313423    -0.34700
N931        N  0.96528300  0.68147061  0.02655104    -0.26900
C932        C  0.96626555  0.66975298  0.02462111    -0.02100
C933        C  0.97728508  0.66751745  0.01972585     0.06500
C934        C  0.98266596  0.67850289  0.01894181     0.04600
H935        H  0.95938585  0.66337759  0.02652911     0.09700
H936        H  0.99146628  0.68041477  0.01571062     0.08500
N937        N  0.06983606  0.85971880  0.04843916    -0.25900
N938        N  0.06873885  0.84808652  0.04787366    -0.33700
C939        C  0.07763600  0.84300910  0.05389795     0.02500
C940        C  0.08478161  0.85181712  0.05855366     0.08500
C941        C  0.07954843  0.86234151  0.05487541    -0.04600
H942        H  0.07906046  0.83354828  0.05436356     0.09200
H943        H  0.08263034  0.87124526  0.05657028     0.10400
Cu944      Cu  0.05560025  0.83930562  0.03866589     0.44200
Cu945      Cu  0.05831458  0.87122850  0.03977301     0.42000
Cu946      Cu  0.03313227  0.85663953  0.02502499     0.43900
N947        N  0.04102095  0.83191747  0.03047271    -0.33300
N948        N  0.03236349  0.83829954  0.02585566    -0.27500
C949        C  0.02370466  0.83098079  0.02215252    -0.03600
C950        C  0.02722358  0.81944671  0.02442544     0.08600
C951        C  0.03824146  0.82038147  0.02968272     0.02400
H952        H  0.01547243  0.83383541  0.01815174     0.10100
H953        H  0.04363228  0.81323271  0.03311213     0.09100
N954        N  0.03639743  0.87472856  0.02469169    -0.34700
N955        N  0.04546258  0.88004481  0.02988682    -0.26900
C956        C  0.04478385  0.89176307  0.02775025    -0.02100
C957        C  0.03477717  0.89392862  0.02095150     0.06500
C958        C  0.02973102  0.88290118  0.01917477     0.04600
H959        H  0.05099659  0.89823508  0.03110876     0.09700
H960        H  0.02183215  0.88090313  0.01412901     0.08500
N961        N  0.32022083  0.81913718  0.92573687    -0.25900
N962        N  0.31844868  0.82005328  0.93724469    -0.33700
C963        C  0.32808765  0.82472768  0.94236868     0.02500
C964        C  0.33645093  0.82684431  0.93370478     0.08500
C965        C  0.33113240  0.82323584  0.92321937    -0.04600
H966        H  0.32889148  0.82646391  0.95174650     0.09200
H967        H  0.33499663  0.82328406  0.91446804     0.10400
Cu968      Cu  0.30321067  0.81476014  0.94569368     0.44200
Cu969      Cu  0.30754126  0.81207076  0.91441887     0.42000
Cu970      Cu  0.27896169  0.80421969  0.92845480     0.43900
N971        N  0.28728532  0.80977801  0.95298977    -0.33300
N972        N  0.27807531  0.80622312  0.94671073    -0.27500
C973        C  0.26894351  0.80418569  0.95409564    -0.03600
C974        C  0.27272505  0.80645264  0.96556013     0.08600
C975        C  0.28438306  0.80997373  0.96449046     0.02400
H976        H  0.26027145  0.80117921  0.95134546     0.10100
H977        H  0.29026089  0.81275947  0.97152927     0.09100
N978        N  0.28280613  0.80226186  0.91057588    -0.34700
N979        N  0.29306648  0.80489478  0.90557870    -0.26900
C980        C  0.29250927  0.80218311  0.89399956    -0.02100
C981        C  0.28136537  0.79768522  0.89156012     0.06500
C982        C  0.27546820  0.79787444  0.90228477     0.04600
H983        H  0.29967718  0.80350897  0.88780425     0.09700
H984        H  0.26657031  0.79480143  0.90402100     0.08500
N985        N  0.18485948  0.82225282  0.08601089    -0.25900
N986        N  0.18506018  0.82065923  0.07442785    -0.33700
C987        C  0.17451377  0.82369858  0.06985036     0.02500
C988        C  0.16719568  0.82737474  0.07895195     0.08500
C989        C  0.17408705  0.82636391  0.08910168    -0.04600
H990        H  0.17245961  0.82348855  0.06050105     0.09200
H991        H  0.17144756  0.82832123  0.09808474     0.10400
Cu992      Cu  0.19965991  0.81497306  0.06499981     0.44200
Cu993      Cu  0.19939770  0.81868407  0.09685719     0.42000
Cu994      Cu  0.22655862  0.81047498  0.08104910     0.43900
N995        N  0.21562233  0.81143150  0.05682336    -0.33300
N996        N  0.22569872  0.81024380  0.06266242    -0.27500
C997        C  0.23455784  0.80886417  0.05482074    -0.03600
C998        C  0.22976798  0.80908849  0.04351053     0.08600
C999        C  0.21773734  0.81071238  0.04514792     0.02400
H1000       H  0.24377170  0.80769696  0.05718260     0.10100
H1001       H  0.21104630  0.81167294  0.03834892     0.09100
N1002       N  0.22477718  0.81027848  0.09937388    -0.34700
N1003       N  0.21508849  0.81346440  0.10513302    -0.26900
C1004       C  0.21690857  0.81194441  0.11682153    -0.02100
C1005       C  0.22821945  0.80746425  0.11849526     0.06500
C1006       C  0.23292719  0.80653357  0.10722933     0.04600
H1007       H  0.21029939  0.81350276  0.12356269     0.09700
H1008       H  0.24160905  0.80324317  0.10487984     0.08500
N1009       N  0.05139716  0.53937265  0.98804475    -0.25900
N1010       N  0.05103456  0.54834465  0.99556260    -0.33700
C1011       C  0.05958886  0.54696262  0.00373399     0.02500
C1012       C  0.06565902  0.53659015  0.00134479     0.08500
C1013       C  0.06018013  0.53197558  0.99134892    -0.04600
H1014       H  0.06126524  0.55310814  0.01088709     0.09200
H1015       H  0.06266322  0.52405035  0.98657995     0.10400
Cu1016     Cu  0.03918372  0.56231398  0.99449224     0.44200
Cu1017     Cu  0.04039755  0.53810684  0.97318354     0.42000
Cu1018     Cu  0.01984678  0.56263537  0.96923920     0.43900
N1019       N  0.02643643  0.57522855  0.99177582    -0.33300
N1020       N  0.01934935  0.57536233  0.98246693    -0.27500
C1021       C  0.01203212  0.58472279  0.98328300    -0.03600
C1022       C  0.01460760  0.59079962  0.99363873     0.08600
C1023       C  0.02382224  0.58449497  0.99877951     0.02400
H1024       H  0.00543192  0.58698884  0.97671475     0.10100
H1025       H  0.02819739  0.58635061  0.00709660     0.09100
N1026       N  0.02144321  0.54867685  0.95740150    -0.34700
N1027       N  0.02884533  0.53970308  0.95877630    -0.26900
C1028       C  0.02755724  0.53224610  0.94955172    -0.02100
C1029       C  0.01890831  0.53671635  0.94198834     0.06500
C1030       C  0.01526093  0.54715753  0.94733211     0.04600
H1031       H  0.03269514  0.52424846  0.94838217     0.09700
H1032       H  0.00843700  0.55315498  0.94428584     0.08500
N1033       N  0.49235121  0.54622469  0.05575674    -0.25900
N1034       N  0.48402568  0.53799924  0.05530233    -0.33700
C1035       C  0.48534139  0.53062650  0.06455021     0.02500
C1036       C  0.49492207  0.53436862  0.07122782     0.08500
C1037       C  0.49914566  0.54430266  0.06537964    -0.04600
H1038       H  0.47955907  0.52322437  0.06639719     0.09200
H1039       H  0.50667306  0.54968408  0.06785822     0.10400
Cu1040     Cu  0.47091282  0.53708513  0.04244952     0.44200
Cu1041     Cu  0.49411872  0.55970238  0.04326748     0.42000
Cu1042     Cu  0.47210560  0.55894835  0.01968521     0.43900
N1043       N  0.45850848  0.53806730  0.02892058    -0.33300
N1044       N  0.45894802  0.54615667  0.02050028    -0.27500
C1045       C  0.44970220  0.54461631  0.01313221    -0.03600
C1046       C  0.44307546  0.53506500  0.01709318     0.08600
C1047       C  0.44897218  0.53115075  0.02714964     0.02400
H1048       H  0.44783205  0.55021860  0.00559467     0.10100
H1049       H  0.44660340  0.52375202  0.03273661     0.09100
N1050       N  0.48576255  0.57120139  0.02064223    -0.34700
N1051       N  0.49369512  0.57169862  0.02924259    -0.26900
C1052       C  0.50098681  0.58092277  0.02721961    -0.02100
C1053       C  0.49749011  0.58650983  0.01681277     0.06500
C1054       C  0.48782969  0.57999166  0.01291919     0.04600
H1055       H  0.50813320  0.58348526  0.03306220     0.09700
H1056       H  0.48266351  0.58140417  0.00498243     0.08500
N1057       N  0.91884538  0.70863880  0.71040799    -0.25900
N1058       N  0.93023680  0.71079140  0.70892876    -0.33700
C1059       C  0.93551342  0.70124329  0.70430944     0.02500
C1060       C  0.92711313  0.69249547  0.70283372     0.08500
C1061       C  0.91656146  0.69750627  0.70670037    -0.04600
H1062       H  0.94487698  0.70067538  0.70238750     0.09200
H1063       H  0.90800689  0.69323819  0.70724048     0.10400
Cu1064     Cu  0.93867408  0.72602454  0.71407689     0.44200
Cu1065     Cu  0.90768957  0.72111016  0.71816506     0.42000
Cu1066     Cu  0.92282513  0.74917962  0.72751566     0.43900
N1067       N  0.94679527  0.74110096  0.72011888    -0.33300
N1068       N  0.94102114  0.75002457  0.72495979    -0.27500
C1069       C  0.94885517  0.75858768  0.72776806    -0.03600
C1070       C  0.96008176  0.75468015  0.72463014     0.08600
C1071       C  0.95839265  0.74357910  0.71980644     0.02400
H1072       H  0.94658459  0.76691318  0.73192605     0.10100
H1073       H  0.96507975  0.73777532  0.71615391     0.09100
N1074       N  0.90492770  0.74539413  0.72957855    -0.34700
N1075       N  0.89951340  0.73550477  0.72633166    -0.26900
C1076       C  0.88801277  0.73624634  0.72937281    -0.02100
C1077       C  0.88610077  0.74706783  0.73483175     0.06500
C1078       C  0.89702416  0.75261288  0.73474751     0.04600
H1079       H  0.88160135  0.72927548  0.72795841     0.09700
H1080       H  0.89912545  0.76131630  0.73814799     0.08500
N1081       N  0.08341340  0.83851323  0.71084083    -0.25900
N1082       N  0.07178808  0.83787399  0.70964502    -0.33700
C1083       C  0.06771874  0.84808469  0.70510341     0.02500
C1084       C  0.07719889  0.85566531  0.70339409     0.08500
C1085       C  0.08703779  0.84924578  0.70710210    -0.04600
H1086       H  0.05848160  0.84981602  0.70323410     0.09200
H1087       H  0.09612035  0.85226161  0.70742796     0.10400
Cu1088     Cu  0.06169352  0.82350729  0.71473416     0.44200
Cu1089     Cu  0.09358294  0.82477004  0.71792084     0.42000
Cu1090     Cu  0.07715416  0.79806250  0.72597027     0.43900
N1091       N  0.05320764  0.80829318  0.72027254    -0.33300
N1092       N  0.05885687  0.79872454  0.72397212    -0.27500
C1093       C  0.05086209  0.79021028  0.72633825    -0.03600
C1094       C  0.03967166  0.79475373  0.72418241     0.08600
C1095       C  0.04148958  0.80622971  0.72037436     0.02400
H1096       H  0.05302209  0.78142291  0.72948853     0.10100
H1097       H  0.03480790  0.81252034  0.71759391     0.09100
N1098       N  0.09532517  0.80005450  0.72828365    -0.34700
N1099       N  0.10130026  0.80969922  0.72540217    -0.26900
C1100       C  0.11278093  0.80808495  0.72823476    -0.02100
C1101       C  0.11414197  0.79688957  0.73315746     0.06500
C1102       C  0.10283597  0.79209422  0.73302931     0.04600
H1103       H  0.11958402  0.81470366  0.72700767     0.09700
H1104       H  0.10022456  0.78339520  0.73604543     0.08500
N1105       N  0.95992240  0.59524298  0.66908197    -0.25900
N1106       N  0.95624210  0.59220966  0.67974227    -0.33700
C1107       C  0.95050228  0.60134339  0.68469175     0.02500
C1108       C  0.95053305  0.61069875  0.67682014     0.08500
C1109       C  0.95662558  0.60653050  0.66698642    -0.04600
H1110       H  0.94711184  0.60134376  0.69363736     0.09200
H1111       H  0.95865399  0.61137010  0.65898568     0.10400
Cu1112     Cu  0.96044642  0.57652097  0.68794117     0.44200
Cu1113     Cu  0.96973009  0.58370932  0.65851084     0.42000
Cu1114     Cu  0.98072884  0.55691830  0.67414416     0.43900
N1115       N  0.96779929  0.56227983  0.69656761    -0.33300
N1116       N  0.97559232  0.55505000  0.69172868    -0.27500
C1117       C  0.97911009  0.54713233  0.69994992    -0.03600
C1118       C  0.97318147  0.54955822  0.71045375     0.08600
C1119       C  0.96613381  0.55925631  0.70790910     0.02400
H1120       H  0.98544479  0.54012523  0.69836342     0.10100
H1121       H  0.96047208  0.56406400  0.71394377     0.09100
N1122       N  0.98297437  0.56037793  0.65618240    -0.34700
N1123       N  0.97901573  0.56986335  0.65052701    -0.26900
C1124       C  0.98148502  0.56872114  0.63892286    -0.02100
C1125       C  0.98721491  0.55799265  0.63715579     0.06500
C1126       C  0.98803599  0.55301226  0.64833256     0.04600
H1127       H  0.97889192  0.57505653  0.63222122     0.09700
H1128       H  0.99193806  0.54457238  0.65063922     0.08500
N1129       N  0.95974145  0.46656928  0.83285014    -0.25900
N1130       N  0.95806146  0.46827502  0.82141737    -0.33700
C1131       C  0.95273313  0.45875745  0.81673488     0.02500
C1132       C  0.95100222  0.45053472  0.82562928     0.08500
C1133       C  0.95550700  0.45582290  0.83577268    -0.04600
H1134       H  0.95050058  0.45786444  0.80746783     0.09200
H1135       H  0.95616876  0.45195376  0.84450453     0.10400
Cu1136     Cu  0.96395117  0.48291445  0.81241405     0.44200
Cu1137     Cu  0.96854126  0.47880343  0.84338506     0.42000
Cu1138     Cu  0.97960883  0.50561523  0.82808474     0.43900
N1139       N  0.97078737  0.49764918  0.80426930    -0.33300
N1140       N  0.97638595  0.50627327  0.80984699    -0.27500
C1141       C  0.97951359  0.51455597  0.80183002    -0.03600
C1142       C  0.97579517  0.51079976  0.79070536     0.08600
C1143       C  0.97028179  0.50007008  0.79266700     0.02400
H1144       H  0.98430135  0.52258595  0.80390850     0.10100
H1145       H  0.96601547  0.49447382  0.78616520     0.09100
N1146       N  0.98205095  0.50189437  0.84608615    -0.34700
N1147       N  0.97805991  0.49230300  0.85150312    -0.26900
C1148       C  0.98118013  0.49274137  0.86299185    -0.02100
C1149       C  0.98745806  0.50309197  0.86499985     0.06500
C1150       C  0.98782825  0.50864907  0.85404364     0.04600
H1151       H  0.97911291  0.48591185  0.86937046     0.09700
H1152       H  0.99180354  0.51711540  0.85201651     0.08500
N1153       N  0.06367641  0.95769400  0.67016797    -0.25900
N1154       N  0.06913729  0.96078905  0.68004081    -0.33700
C1155       C  0.07367790  0.95113634  0.68525592     0.02500
C1156       C  0.07084753  0.94131888  0.67849588     0.08500
C1157       C  0.06455239  0.94584654  0.66890884    -0.04600
H1158       H  0.07835971  0.95130518  0.69360737     0.09200
H1159       H  0.06038486  0.94086032  0.66187085     0.10400
Cu1160     Cu  0.06861800  0.97746307  0.68739491     0.44200
Cu1161     Cu  0.05475719  0.96996398  0.65955300     0.42000
Cu1162     Cu  0.05108812  0.99938048  0.67345780     0.43900
N1163       N  0.06451157  0.99330499  0.69543536    -0.33300
N1164       N  0.05788423  0.00150203  0.69038886    -0.27500
C1165       C  0.05610524  0.01035214  0.69816712    -0.03600
C1166       C  0.06186203  0.00751513  0.70867636     0.08600
C1167       C  0.06707736  0.99661319  0.70655126     0.02400
H1168       H  0.05087270  0.01816047  0.69631822     0.10100
H1169       H  0.07190168  0.99116146  0.71278225     0.09100
N1170       N  0.04579140  0.99511486  0.65638725    -0.34700
N1171       N  0.04717949  0.98468155  0.65124453    -0.26900
C1172       C  0.04314340  0.98539101  0.64003383    -0.02100
C1173       C  0.03899630  0.99681444  0.63800797     0.06500
C1174       C  0.04079057  0.00264544  0.64865727     0.04600
H1175       H  0.04347524  0.97815662  0.63377683     0.09700
H1176       H  0.03854529  0.01170607  0.65077235     0.08500
N1177       N  0.05906989  0.09756037  0.82860551    -0.25900
N1178       N  0.06329232  0.09551327  0.81791199    -0.33700
C1179       C  0.06765831  0.10559094  0.81341699     0.02500
C1180       C  0.06606034  0.11456828  0.82159714     0.08500
C1181       C  0.06064015  0.10911519  0.83119452    -0.04600
H1182       H  0.07152083  0.10631247  0.80469952     0.09200
H1183       H  0.05761208  0.11331276  0.83924282     0.10400
Cu1184     Cu  0.06204054  0.07948365  0.80926492     0.44200
Cu1185     Cu  0.05096631  0.08430591  0.83854651     0.42000
Cu1186     Cu  0.04870720  0.05495800  0.82378116     0.43900
N1187       N  0.05929387  0.06340148  0.80107347    -0.33300
N1188       N  0.05440265  0.05419440  0.80632320    -0.27500
C1189       C  0.05375446  0.04519720  0.79851493    -0.03600
C1190       C  0.05848286  0.04897715  0.78780547     0.08600
C1191       C  0.06183757  0.06060211  0.78982973     0.02400
H1192       H  0.05016706  0.03656051  0.80054554     0.10100
H1193       H  0.06557181  0.06675659  0.78353371     0.09100
N1194       N  0.04360436  0.05852016  0.84108990    -0.34700
N1195       N  0.04421669  0.06898913  0.84632437    -0.26900
C1196       C  0.04009254  0.06796598  0.85744144    -0.02100
C1197       C  0.03675697  0.05629550  0.85936172     0.06500
C1198       C  0.03914805  0.05060323  0.84875975     0.04600
H1199       H  0.03946747  0.07526666  0.86359875     0.09700
H1200       H  0.03795833  0.04131828  0.84675426     0.08500
N1201       N  0.08720771  0.21881496  0.80057616    -0.25900
N1202       N  0.07593445  0.22079360  0.80291727    -0.33700
C1203       C  0.07087953  0.21072643  0.80670442     0.02500
C1204       C  0.07934773  0.20182599  0.80670916     0.08500
C1205       C  0.08962646  0.20734327  0.80277598    -0.04600
H1206       H  0.06166975  0.21001314  0.80919774     0.09200
H1207       H  0.09814790  0.20326754  0.80121670     0.10400
Cu1208     Cu  0.06773438  0.23683079  0.79994464     0.44200
Cu1209     Cu  0.09836373  0.23197198  0.79402577     0.42000
Cu1210     Cu  0.08481461  0.26123770  0.78862223     0.43900
N1211       N  0.06047934  0.25281401  0.79494887    -0.33300
N1212       N  0.06658720  0.26192632  0.79091262    -0.27500
C1213       C  0.05899503  0.27071001  0.78810199    -0.03600
C1214       C  0.04758038  0.26680087  0.79037509     0.08600
C1215       C  0.04891240  0.25545813  0.79475462     0.02400
H1216       H  0.06156829  0.27913116  0.78434370     0.10100
H1217       H  0.04197937  0.24950515  0.79760057     0.09100
N1218       N  0.10247607  0.25714976  0.78548684    -0.34700
N1219       N  0.10732760  0.24661896  0.78724089    -0.26900
C1220       C  0.11867992  0.24695842  0.78363482    -0.02100
C1221       C  0.12111830  0.25823044  0.77941997     0.06500
C1222       C  0.11061657  0.26443150  0.78077148     0.04600
H1223       H  0.12469949  0.23951505  0.78405894     0.09700
H1224       H  0.10886320  0.27347599  0.77814507     0.08500
N1225       N  0.92362012  0.34867018  0.80509365    -0.25900
N1226       N  0.93527276  0.34803226  0.80590795    -0.33700
C1227       C  0.93949425  0.35822291  0.81027770     0.02500
C1228       C  0.93006686  0.36574059  0.81229443     0.08500
C1229       C  0.92010449  0.35942174  0.80886583    -0.04600
H1230       H  0.94880631  0.36017498  0.81140489     0.09200
H1231       H  0.91101265  0.36244241  0.80895682     0.10400
Cu1232     Cu  0.94518659  0.33381591  0.80045950     0.44200
Cu1233     Cu  0.91339408  0.33489408  0.79844662     0.42000
Cu1234     Cu  0.93000170  0.30795070  0.79065537     0.43900
N1235       N  0.95380890  0.31870607  0.79523635    -0.33300
N1236       N  0.94830841  0.30890501  0.79200748    -0.27500
C1237       C  0.95645974  0.30053460  0.78963165    -0.03600
C1238       C  0.96756696  0.30545204  0.79132932     0.08600
C1239       C  0.96555091  0.31696237  0.79486675     0.02400
H1240       H  0.95446279  0.29162373  0.78673931     0.10100
H1241       H  0.97211914  0.32352641  0.79722741     0.09100
N1242       N  0.91183012  0.30999474  0.78863736    -0.34700
N1243       N  0.90584427  0.31971224  0.79127084    -0.26900
C1244       C  0.89444259  0.31819715  0.78813438    -0.02100
C1245       C  0.89314954  0.30698737  0.78326465     0.06500
C1246       C  0.90439137  0.30205766  0.78381515     0.04600
H1247       H  0.88771601  0.32496798  0.78894644     0.09700
H1248       H  0.90707421  0.29336001  0.78085271     0.08500
N1249       N  0.98070777  0.07483400  0.52234771    -0.25900
N1250       N  0.98929690  0.07497172  0.53029860    -0.33700
C1251       C  0.99615508  0.08451264  0.52839471     0.02500
C1252       C  0.99166405  0.09070267  0.51876762     0.08500
C1253       C  0.98186319  0.08425402  0.51516722    -0.04600
H1254       H  0.00393187  0.08666725  0.53356337     0.09200
H1255       H  0.97584071  0.08634931  0.50801321     0.10400
Cu1256     Cu  0.99125682  0.06207238  0.54328283     0.44200
Cu1257     Cu  0.96768859  0.06198128  0.52180256     0.42000
Cu1258     Cu  0.96935526  0.03829385  0.54327786     0.43900
N1259       N  0.99169460  0.04768888  0.55476521    -0.33300
N1260       N  0.98381821  0.03902939  0.55469412    -0.27500
C1261       C  0.98683766  0.03100610  0.56296871    -0.03600
C1262       C  0.99712479  0.03475398  0.56855463     0.08600
C1263       C  0.99991195  0.04539596  0.56309834     0.02400
H1264       H  0.98200116  0.02290954  0.56459456     0.10100
H1265       H  0.00732309  0.05113388  0.56506366     0.09100
N1266       N  0.95579435  0.03987849  0.53088360    -0.34700
N1267       N  0.95531036  0.04855941  0.52305817    -0.26900
C1268       C  0.94567167  0.04715501  0.51622914    -0.02100
C1269       C  0.93974008  0.03706623  0.51985821     0.06500
C1270       C  0.94641561  0.03269717  0.52922270     0.04600
H1271       H  0.94314396  0.05314726  0.50919736     0.09700
H1272       H  0.94474630  0.02475438  0.53429775     0.08500
N1273       N  0.02130393  0.48008025  0.52286779    -0.25900
N1274       N  0.02934530  0.48010020  0.51438780    -0.33700
C1275       C  0.02752586  0.47074371  0.50725733     0.02500
C1276       C  0.01785191  0.46448345  0.51142617     0.08500
C1277       C  0.01415701  0.47067256  0.52135935    -0.04600
H1278       H  0.03287922  0.46868762  0.49960147     0.09200
H1279       H  0.00660809  0.46870560  0.52689425     0.10400
Cu1280     Cu  0.04216870  0.49303689  0.51256798     0.44200
Cu1281     Cu  0.02010424  0.49315238  0.53578653     0.42000
Cu1282     Cu  0.04114193  0.51737977  0.53314025     0.43900
N1283       N  0.05393959  0.50705153  0.51227856    -0.33300
N1284       N  0.05369924  0.51592766  0.51989439    -0.27500
C1285       C  0.06270825  0.52334140  0.51751830    -0.03600
C1286       C  0.06882600  0.51894713  0.50786204     0.08600
C1287       C  0.06301298  0.50861945  0.50478022     0.02400
H1288       H  0.06459873  0.53135916  0.52240754     0.10100
H1289       H  0.06535083  0.50253984  0.49776169     0.09100
N1290       N  0.02820787  0.51645270  0.54606968    -0.34700
N1291       N  0.02062330  0.50761610  0.54718760    -0.26900
C1292       C  0.01376088  0.50963806  0.55670634    -0.02100
C1293       C  0.01720442  0.52026247  0.56184668     0.06500
C1294       C  0.02636776  0.52431625  0.55479347     0.04600
H1295       H  0.00696974  0.50364733  0.55979572     0.09700
H1296       H  0.03136130  0.53241493  0.55585888     0.08500
N1297       N  0.99775770  0.98509188  0.97551385    -0.25900
N1298       N  0.98886898  0.98439331  0.98305432    -0.33700
C1299       C  0.99065161  0.97506875  0.99025243     0.02500
C1300       C  0.00119924  0.96959578  0.98710090     0.08500
C1301       C  0.00544217  0.97625112  0.97770528    -0.04600
H1302       H  0.98452859  0.97231827  0.99706152     0.09200
H1303       H  0.01353164  0.97483065  0.97280040     0.10400
Cu1304     Cu  0.97457658  0.99599477  0.98282726     0.44200
Cu1305     Cu  0.99861155  0.99768841  0.96221995     0.42000
Cu1306     Cu  0.97310246  0.01728509  0.95879339     0.43900
N1307       N  0.96094645  0.00819162  0.98068610    -0.33300
N1308       N  0.96035473  0.01599216  0.97198028    -0.27500
C1309       C  0.95033140  0.02236997  0.97313665    -0.03600
C1310       C  0.94426782  0.01831615  0.98299935     0.08600
C1311       C  0.95131938  0.00935719  0.98755898     0.02400
H1312       H  0.94753774  0.02923653  0.96706599     0.10100
H1313       H  0.94961619  0.00406197  0.99534547     0.09100
N1314       N  0.98744411  0.01690353  0.94729118    -0.34700
N1315       N  0.99678533  0.00999011  0.94873798    -0.26900
C1316       C  0.00457371  0.01211438  0.94002393    -0.02100
C1317       C  0.99993996  0.02076311  0.93263374     0.06500
C1318       C  0.98902933  0.02355786  0.93755082     0.04600
H1319       H  0.01308116  0.00777933  0.93930299     0.09700
H1320       H  0.98261438  0.02987854  0.93427906     0.08500
N1321       N  0.77287391  0.82331419  0.77087597    -0.25900
N1322       N  0.76418608  0.82382532  0.77867377    -0.33700
C1323       C  0.75783359  0.83372253  0.77669344     0.02500
C1324       C  0.76274800  0.83971936  0.76715659     0.08500
C1325       C  0.77226690  0.83279183  0.76372529    -0.04600
H1326       H  0.75029303  0.83639304  0.78193883     0.09200
H1327       H  0.77823801  0.83435178  0.75642384     0.10400
Cu1328     Cu  0.76142890  0.81098688  0.79161123     0.44200
Cu1329     Cu  0.78533562  0.80993980  0.77016055     0.42000
Cu1330     Cu  0.78307489  0.78706150  0.79193581     0.43900
N1331       N  0.76138446  0.79713545  0.80378174    -0.33300
N1332       N  0.76933362  0.78853685  0.80386835    -0.27500
C1333       C  0.76716572  0.78125868  0.81300678    -0.03600
C1334       C  0.75735176  0.78542182  0.81903042     0.08600
C1335       C  0.75391090  0.79551259  0.81289542     0.02400
H1336       H  0.77259978  0.77369854  0.81527364     0.10100
H1337       H  0.74654092  0.80129403  0.81489114     0.09100
N1338       N  0.79614863  0.78741285  0.77920080    -0.34700
N1339       N  0.79701868  0.79590207  0.77121961    -0.26900
C1340       C  0.80645578  0.79377082  0.76432509    -0.02100
C1341       C  0.81177706  0.78339483  0.76813696     0.06500
C1342       C  0.80498267  0.77960067  0.77758817     0.04600
H1343       H  0.80913909  0.79931318  0.75700133     0.09700
H1344       H  0.80645133  0.77186469  0.78304294     0.08500
N1345       N  0.20699390  0.75269200  0.76867780    -0.25900
N1346       N  0.20629685  0.76016177  0.77764740    -0.33700
C1347       C  0.19642931  0.76677186  0.77638183     0.02500
C1348       C  0.19060272  0.76331248  0.76608531     0.08500
C1349       C  0.19766617  0.75438138  0.76145874    -0.04600
H1350       H  0.19360456  0.77341602  0.78266370     0.09200
H1351       H  0.19622749  0.74945626  0.75338265     0.10400
Cu1352     Cu  0.21893539  0.76079886  0.79111960     0.44200
Cu1353     Cu  0.22027506  0.74008504  0.76681867     0.42000
Cu1354     Cu  0.24174386  0.73762695  0.79018366     0.43900
N1355       N  0.23311222  0.75957184  0.80291508    -0.33300
N1356       N  0.24117594  0.75106563  0.80268574    -0.27500
C1357       C  0.24909373  0.75294562  0.81138979    -0.03600
C1358       C  0.24594352  0.76316627  0.81737418     0.08600
C1359       C  0.23576144  0.76712153  0.81174708     0.02400
H1360       H  0.25674409  0.74740916  0.81303674     0.10100
H1361       H  0.23057070  0.77486041  0.81397068     0.09100
N1362       N  0.24153911  0.72650792  0.77557130    -0.34700
N1363       N  0.23371418  0.72750427  0.76692279    -0.26900
C1364       C  0.23611212  0.71935645  0.75857633    -0.02100
C1365       C  0.24597614  0.71291661  0.76209344     0.06500
C1366       C  0.24915235  0.71772172  0.77294636     0.04600
H1367       H  0.23117341  0.71839523  0.75042384     0.09700
H1368       H  0.25643456  0.71502717  0.77856764     0.08500
N1369       N  0.77224628  0.23120360  0.73327925    -0.25900
N1370       N  0.78042502  0.23146620  0.74164893    -0.33700
C1371       C  0.77875314  0.22225439  0.74900125     0.02500
C1372       C  0.76901663  0.21585104  0.74510160     0.08500
C1373       C  0.76514364  0.22182208  0.73508331    -0.04600
H1374       H  0.78432067  0.22032793  0.75655786     0.09200
H1375       H  0.75757192  0.21968407  0.72961481     0.10400
Cu1376     Cu  0.79330052  0.24452112  0.74279007     0.44200
Cu1377     Cu  0.77102524  0.24377606  0.71993908     0.42000
Cu1378     Cu  0.79179031  0.26831769  0.72116725     0.43900
N1379       N  0.80499884  0.25867950  0.74234531    -0.33300
N1380       N  0.80442740  0.26741195  0.73457510    -0.27500
C1381       C  0.81333992  0.27503924  0.73670375    -0.03600
C1382       C  0.81987513  0.27090549  0.74626813     0.08600
C1383       C  0.81426877  0.26051219  0.74959898     0.02400
H1384       H  0.81507470  0.28286196  0.73146903     0.10100
H1385       H  0.81664713  0.25472170  0.75684636     0.09100
N1386       N  0.77886644  0.26644701  0.70813891    -0.34700
N1387       N  0.77136756  0.25747174  0.70769993    -0.26900
C1388       C  0.76434110  0.25871969  0.69815889    -0.02100
C1389       C  0.76754649  0.26897433  0.69224377     0.06500
C1390       C  0.77680503  0.27363425  0.69885552     0.04600
H1391       H  0.75755473  0.25246026  0.69560944     0.09700
H1392       H  0.78165317  0.28170378  0.69712083     0.08500
N1393       N  0.73656004  0.79739690  0.20781730    -0.25900
N1394       N  0.74452644  0.80595182  0.20783832    -0.33700
C1395       C  0.75211346  0.80420016  0.19885875     0.02500
C1396       C  0.74880627  0.79397823  0.19295190     0.08500
C1397       C  0.73888969  0.78991262  0.19887612    -0.04600
H1398       H  0.75972456  0.80971962  0.19705722     0.09200
H1399       H  0.73376445  0.78206725  0.19689832     0.10400
Cu1400     Cu  0.74517549  0.81899522  0.22066053     0.44200
Cu1401     Cu  0.72325802  0.79608137  0.22026902     0.42000
Cu1402     Cu  0.72431271  0.81649131  0.24504668     0.43900
N1403       N  0.74473574  0.83038518  0.23498274    -0.33300
N1404       N  0.73725042  0.82946119  0.24391043    -0.27500
C1405       C  0.73931832  0.83830642  0.25160979    -0.03600
C1406       C  0.74857053  0.84511770  0.24732592     0.08600
C1407       C  0.75176920  0.83980344  0.23676633     0.02400
H1408       H  0.73446687  0.83961198  0.25974867     0.10100
H1409       H  0.75854418  0.84268545  0.23066263     0.09100
N1410       N  0.71159550  0.80339362  0.24311110    -0.34700
N1411       N  0.71111348  0.79617379  0.23391553    -0.26900
C1412       C  0.70172911  0.78897814  0.23507350    -0.02100
C1413       C  0.69603449  0.79173988  0.24553406     0.06500
C1414       C  0.70254834  0.80091079  0.25042745     0.04600
H1415       H  0.69937574  0.78208857  0.22884764     0.09700
H1416       H  0.70076467  0.80555668  0.25860400     0.08500
N1417       N  0.70911941  0.25374300  0.26384580    -0.25900
N1418       N  0.70928923  0.26248216  0.27164256    -0.33700
C1419       C  0.70002993  0.26971597  0.26952306     0.02500
C1420       C  0.69366270  0.26525075  0.26002026     0.08500
C1421       C  0.69969421  0.25511444  0.25666986    -0.04600
H1422       H  0.69785218  0.27741917  0.27478198     0.09200
H1423       H  0.69739180  0.24913900  0.24954569     0.10400
Cu1424     Cu  0.72157605  0.26362885  0.28539408     0.44200
Cu1425     Cu  0.72155691  0.24016954  0.26328837     0.42000
Cu1426     Cu  0.74306292  0.23952224  0.28669041     0.43900
N1427       N  0.73407487  0.26165420  0.29886077    -0.33300
N1428       N  0.74170680  0.25278036  0.29933977    -0.27500
C1429       C  0.74842236  0.25392203  0.30910141    -0.03600
C1430       C  0.74494931  0.26404032  0.31511703     0.08600
C1431       C  0.73578285  0.26869531  0.30833774     0.02400
H1432       H  0.75526237  0.24771591  0.31165389     0.10100
H1433       H  0.73082709  0.27671605  0.31002768     0.09100
N1434       N  0.74311855  0.22756749  0.27273730    -0.34700
N1435       N  0.73510915  0.22773278  0.26419879    -0.26900
C1436       C  0.73752217  0.21900514  0.25646467    -0.02100
C1437       C  0.74759113  0.21307681  0.26026469     0.06500
C1438       C  0.75089899  0.21878040  0.27062165     0.04600
H1439       H  0.73247013  0.21729419  0.24850328     0.09700
H1440       H  0.75836566  0.21667145  0.27625437     0.08500
N1441       N  0.23758735  0.29761129  0.70630036    -0.25900
N1442       N  0.24540454  0.30631922  0.70660573    -0.33700
C1443       C  0.25299311  0.30502112  0.69752655     0.02500
C1444       C  0.24982707  0.29500716  0.69115139     0.08500
C1445       C  0.23999225  0.29057481  0.69700809    -0.04600
H1446       H  0.26035752  0.31088790  0.69581932     0.09200
H1447       H  0.23479883  0.28289722  0.69460961     0.10400
Cu1448     Cu  0.24540199  0.31970233  0.71923914     0.44200
Cu1449     Cu  0.22397310  0.29548162  0.71851032     0.42000
Cu1450     Cu  0.22349818  0.31684058  0.74228106     0.43900
N1451       N  0.24331200  0.33198287  0.73278248    -0.33300
N1452       N  0.23540646  0.33080800  0.74130788    -0.27500
C1453       C  0.23636723  0.34002771  0.74878454    -0.03600
C1454       C  0.24529755  0.34742185  0.74478215     0.08600
C1455       C  0.24947489  0.34202834  0.73458129     0.02400
H1456       H  0.23086300  0.34129695  0.75650338     0.10100
H1457       H  0.25664517  0.34503106  0.72900718     0.09100
N1458       N  0.21157667  0.30292086  0.74088320    -0.34700
N1459       N  0.21154659  0.29520551  0.73208828    -0.26900
C1460       C  0.20240410  0.28768971  0.73355557    -0.02100
C1461       C  0.19641458  0.29079564  0.74381269     0.06500
C1462       C  0.20252143  0.30049792  0.74819371     0.04600
H1463       H  0.20033439  0.28046176  0.72762221     0.09700
H1464       H  0.20035860  0.30565977  0.75595800     0.08500
N1465       N  0.27002624  0.73513141  0.23077992    -0.25900
N1466       N  0.27938820  0.73329533  0.23757314    -0.33700
C1467       C  0.27789583  0.72312340  0.24357295     0.02500
C1468       C  0.26705554  0.71828490  0.24041744     0.08500
C1469       C  0.26231971  0.72618206  0.23228896    -0.04600
H1470       H  0.28421095  0.71960170  0.24986650     0.09200
H1471       H  0.25399554  0.72538938  0.22760664     0.10400
Cu1472     Cu  0.29384938  0.74460388  0.23823533     0.44200
Cu1473     Cu  0.26832793  0.74953029  0.21948946     0.42000
Cu1474     Cu  0.29334428  0.76957512  0.21803062     0.43900
N1475       N  0.30734313  0.75700354  0.23704502    -0.33300
N1476       N  0.30725921  0.76601316  0.22957415    -0.27500
C1477       C  0.31724301  0.77234426  0.23106814    -0.03600
C1478       C  0.32390603  0.76711617  0.23996178     0.08600
C1479       C  0.31733086  0.75740957  0.24353616     0.02400
H1480       H  0.31931630  0.78036645  0.22627090     0.10100
H1481       H  0.31962231  0.75107636  0.25034853     0.09100
N1482       N  0.27830916  0.77119392  0.20749724    -0.34700
N1483       N  0.26912999  0.76396719  0.20815214    -0.26900
C1484       C  0.26109506  0.76711468  0.19992680    -0.02100
C1485       C  0.26542203  0.77676477  0.19372020     0.06500
C1486       C  0.27636701  0.77910318  0.19879912     0.04600
H1487       H  0.25294568  0.76237029  0.19824324     0.09700
H1488       H  0.28256234  0.78594615  0.19627315     0.08500
N1489       N  0.49034683  0.51307959  0.45639221    -0.25900
N1490       N  0.49860817  0.50477273  0.45649671    -0.33700
C1491       C  0.50668850  0.50724664  0.44813789     0.02500
C1492       C  0.50341273  0.51764035  0.44250466     0.08500
C1493       C  0.49301212  0.52110451  0.44800104    -0.04600
H1494       H  0.51439893  0.50185864  0.44632331     0.09200
H1495       H  0.48759442  0.52871479  0.44585143     0.10400
Cu1496     Cu  0.49860038  0.49031281  0.46784841     0.44200
Cu1497     Cu  0.47565960  0.51293290  0.46744554     0.42000
Cu1498     Cu  0.47417459  0.48847516  0.48825985     0.43900
N1499       N  0.49672321  0.47674154  0.48010018    -0.33300
N1500       N  0.48779516  0.47610326  0.48761430    -0.27500
C1501       C  0.48919633  0.46645372  0.49445981    -0.03600
C1502       C  0.49950203  0.46069388  0.49109151     0.08600
C1503       C  0.50402012  0.46748806  0.48193422     0.02400
H1504       H  0.48307069  0.46377195  0.50129735     0.10100
H1505       H  0.51212451  0.46595428  0.47708209     0.09100
N1506       N  0.46176117  0.50205658  0.48747172    -0.34700
N1507       N  0.46222148  0.51088959  0.47981934    -0.26900
C1508       C  0.45294369  0.51813394  0.48167426    -0.02100
C1509       C  0.44629715  0.51371759  0.49101149     0.06500
C1510       C  0.45222067  0.50349006  0.49443436     0.04600
H1511       H  0.45115333  0.52597380  0.47647900     0.09700
H1512       H  0.44995478  0.49759900  0.50161970     0.08500
N1513       N  0.26247164  0.32050949  0.28137205    -0.25900
N1514       N  0.26904375  0.31906025  0.27181733    -0.33700
C1515       C  0.26693170  0.32802066  0.26425459     0.02500
C1516       C  0.25867834  0.33555137  0.26930926     0.08500
C1517       C  0.25606934  0.33050280  0.28018166    -0.04600
H1518       H  0.27133457  0.32913125  0.25583746     0.09200
H1519       H  0.24989887  0.33378804  0.28671653     0.10400
Cu1520     Cu  0.28105504  0.30530514  0.26980652     0.44200
Cu1521     Cu  0.26248615  0.30865387  0.29546479     0.42000
Cu1522     Cu  0.28265109  0.28344772  0.29318203     0.43900
N1523       N  0.29336391  0.29166677  0.27019429    -0.33300
N1524       N  0.29408763  0.28370962  0.27874244    -0.27500
C1525       C  0.30333046  0.27648845  0.27654171    -0.03600
C1526       C  0.30866247  0.28005502  0.26607102     0.08600
C1527       C  0.30206811  0.28971474  0.26233803     0.02400
H1528       H  0.30594807  0.26918352  0.28216159     0.10100
H1529       H  0.30367825  0.29518818  0.25465668     0.09100
N1530       N  0.27064078  0.28583706  0.30694997    -0.34700
N1531       N  0.26344783  0.29504053  0.30784097    -0.26900
C1532       C  0.25697827  0.29394213  0.31776737    -0.02100
C1533       C  0.26021544  0.28353732  0.32345517     0.06500
C1534       C  0.26890890  0.27864858  0.31628545     0.04600
H1535       H  0.25049741  0.30036424  0.32067113     0.09700
H1536       H  0.27354450  0.27037146  0.31762570     0.08500
C1537       C  0.86078597  0.29994477  0.77693575     0.14100
C1538       C  0.86172949  0.29174768  0.76762340     0.01000
C1539       C  0.87302198  0.28858604  0.76349823     0.16000
C1540       C  0.88319383  0.29350413  0.76857098     0.25400
C1541       C  0.88231111  0.30170175  0.77794398    -0.40900
C1542       C  0.87096022  0.30486615  0.78205964     0.32500
C1543       C  0.85097452  0.28645203  0.76220946     0.01100
F1544       F  0.87420386  0.28091645  0.75431962    -0.13200
F1545       F  0.86965948  0.31247308  0.79126508    -0.13700
C1546       C  0.84218743  0.29368998  0.75715117     0.16000
C1547       C  0.83209335  0.28866897  0.75196839     0.25400
C1548       C  0.83061401  0.27627980  0.75168064    -0.40800
C1549       C  0.83949567  0.26905573  0.75668145     0.32400
C1550       C  0.84952393  0.27409668  0.76193595     0.14100
F1551       F  0.84346532  0.30564604  0.75707684    -0.13200
F1552       F  0.83867499  0.25707348  0.75622975    -0.13700
F1553       F  0.82365664  0.29597911  0.74749008    -0.16000
F1554       F  0.85779772  0.26688367  0.76687517    -0.14600
F1555       F  0.84999360  0.30299549  0.78125542    -0.14600
F1556       F  0.89387232  0.29050408  0.76396993    -0.16000
C1557       C  0.16621281  0.27610738  0.74641329     0.14100
C1558       C  0.16466969  0.27575990  0.75874673     0.01000
C1559       C  0.17374209  0.28002343  0.76611842     0.16000
C1560       C  0.18410870  0.28472941  0.76126389     0.25400
C1561       C  0.18562257  0.28528126  0.74890616    -0.40900
C1562       C  0.17659336  0.28081811  0.74152613     0.32500
C1563       C  0.15350815  0.27122578  0.76396375     0.01100
F1564       F  0.17259352  0.27952182  0.77806621    -0.13200
F1565       F  0.17756125  0.28146660  0.72957443    -0.13700
C1566       C  0.14998318  0.25943017  0.76216750     0.16000
C1567       C  0.13951334  0.25515928  0.76724862     0.25400
C1568       C  0.13233301  0.26264330  0.77417961    -0.40800
C1569       C  0.13588809  0.27447069  0.77592467     0.32400
C1570       C  0.14637092  0.27869996  0.77087984     0.14100
F1571       F  0.15676877  0.25199986  0.75559783    -0.13200
F1572       F  0.12937510  0.28190401  0.78275601    -0.13700
F1573       F  0.13626106  0.24379024  0.76509936    -0.16000
F1574       F  0.14950809  0.29017271  0.77264619    -0.14600
F1575       F  0.15748272  0.27224568  0.73909095    -0.14600
F1576       F  0.19276735  0.28852962  0.76869534    -0.16000
C1577       C  0.99940626  0.30022484  0.78265950     0.14100
C1578       C  0.00186096  0.28946063  0.78841797     0.01000
C1579       C  0.99282284  0.28385326  0.79491022     0.16000
C1580       C  0.98152724  0.28886989  0.79553820     0.25400
C1581       C  0.97918802  0.29973220  0.78998441    -0.40900
C1582       C  0.98820111  0.30539949  0.78357967     0.32500
C1583       C  0.01382212  0.28408552  0.78779291     0.01100
F1584       F  0.99503654  0.27369440  0.80095777    -0.13200
F1585       F  0.98607603  0.31585451  0.77802918    -0.13700
C1586       C  0.02393141  0.29058168  0.79113298     0.16000
C1587       C  0.03507707  0.28514566  0.79140438     0.25400
C1588       C  0.03623267  0.27307671  0.78857124    -0.40800
C1589       C  0.02620058  0.26675451  0.78473579     0.32400
C1590       C  0.01513053  0.27222564  0.78428029     0.14100
F1591       F  0.02293876  0.30202172  0.79470200    -0.13200
F1592       F  0.02709947  0.25524569  0.78137289    -0.13700
F1593       F  0.04458793  0.29150669  0.79509757    -0.16000
F1594       F  0.00563889  0.26589091  0.78047374    -0.14600
F1595       F  0.00780802  0.30564968  0.77601376    -0.14600
F1596       F  0.97302984  0.28339127  0.80202060    -0.16000
C1597       C  0.01923565  0.03626407  0.87992994     0.14100
C1598       C  0.02189794  0.04108949  0.89105492     0.01000
C1599       C  0.02954604  0.05085251  0.89180221     0.16000
C1600       C  0.03446421  0.05574663  0.88154560     0.25400
C1601       C  0.03170444  0.05102601  0.87031167    -0.40900
C1602       C  0.02402205  0.04119874  0.86965500     0.32500
C1603       C  0.01651444  0.03600003  0.90183499     0.01100
F1604       F  0.03240672  0.05551998  0.90250703    -0.13200
F1605       F  0.02076745  0.03655846  0.85906324    -0.13700
C1606       C  0.01905790  0.02431137  0.90519872     0.16000
C1607       C  0.01362365  0.01932658  0.91512780     0.25400
C1608       C  0.00557305  0.02599407  0.92196147    -0.40800
C1609       C  0.00307910  0.03774911  0.91853634     0.32400
C1610       C  0.00850471  0.04268123  0.90857052     0.14100
F1611       F  0.02685812  0.01772433  0.89885616    -0.13200
F1612       F  0.99558501  0.04461368  0.92493230    -0.13700
F1613       F  0.01601898  0.00785438  0.91779715    -0.16000
F1614       F  0.00579044  0.05395279  0.90536766    -0.14600
F1615       F  0.01172145  0.02692381  0.87900329    -0.14600
F1616       F  0.04216648  0.06489527  0.88269158    -0.16000
C1617       C  0.07426843  0.14672003  0.82756129     0.14100
C1618       C  0.07286581  0.15177147  0.81627660     0.01000
C1619       C  0.06950502  0.14451422  0.80676552     0.16000
C1620       C  0.06734956  0.13246431  0.80850626     0.25400
C1621       C  0.06856680  0.12735964  0.81982901    -0.40900
C1622       C  0.07210287  0.13461787  0.82934090     0.32500
C1623       C  0.07447167  0.16466454  0.81438972     0.01100
F1624       F  0.06827420  0.14913406  0.79573545    -0.13200
F1625       F  0.07363490  0.12998980  0.84032256    -0.13700
C1626       C  0.08551380  0.17005999  0.81627068     0.16000
C1627       C  0.08706599  0.18215069  0.81394896     0.25400
C1628       C  0.07760206  0.18907725  0.80961523    -0.40800
C1629       C  0.06648424  0.18361863  0.80791851     0.32400
C1630       C  0.06495901  0.17156812  0.81031195     0.14100
F1631       F  0.09488106  0.16355103  0.82010005    -0.13200
F1632       F  0.05712205  0.18977314  0.80354975    -0.13700
F1633       F  0.09780699  0.18707786  0.81612808    -0.16000
F1634       F  0.05414270  0.16659050  0.80860023    -0.14600
F1635       F  0.07748200  0.15356904  0.83690366    -0.14600
F1636       F  0.06362998  0.12592297  0.79913529    -0.16000
C1637       C  0.02223768  0.99951748  0.60880313     0.14100
C1638       C  0.02271989  0.01177890  0.60673882     0.01000
C1639       C  0.02900188  0.01899335  0.61467308     0.16000
C1640       C  0.03452922  0.01410069  0.62461862     0.25400
C1641       C  0.03375951  0.00184742  0.62697542    -0.40900
C1642       C  0.02766604  0.99458979  0.61882687     0.32500
C1643       C  0.01628726  0.01717644  0.59661917     0.01100
F1644       F  0.02950730  0.03088741  0.61296805    -0.13200
F1645       F  0.02655021  0.98277921  0.62071941    -0.13700
C1646       C  0.00392527  0.01609043  0.59574422     0.16000
C1647       C  0.99771188  0.02176256  0.58663310     0.25400
C1648       C  0.00375028  0.02863342  0.57816352    -0.40800
C1649       C  0.01617350  0.02959629  0.57899707     0.32400
C1650       C  0.02236411  0.02391798  0.58813022     0.14100
F1651       F  0.99780322  0.00986378  0.60398834    -0.13200
F1652       F  0.02240609  0.03581118  0.57083665    -0.13700
F1653       F  0.98572602  0.02090064  0.58642459    -0.16000
F1654       F  0.03433917  0.02491298  0.58863217    -0.14600
F1655       F  0.01643868  0.99230880  0.60111890    -0.14600
F1656       F  0.04074195  0.02142748  0.63183861    -0.16000
C1657       C  0.07096027  0.01859643  0.73908322     0.14100
C1658       C  0.06102877  0.02527626  0.74242238     0.01000
C1659       C  0.05154074  0.02649800  0.73446175     0.16000
C1660       C  0.05186630  0.02093556  0.72340079     0.25400
C1661       C  0.06173461  0.01404742  0.72008497    -0.40900
C1662       C  0.07133818  0.01306234  0.72802384     0.32500
C1663       C  0.06058547  0.03100635  0.75419568     0.01100
F1664       F  0.04195275  0.03313179  0.73740349    -0.13200
F1665       F  0.08120472  0.00687175  0.72505954    -0.13700
C1666       C  0.06899134  0.03960716  0.75729606     0.16000
C1667       C  0.06848429  0.04519309  0.76831828     0.25400
C1668       C  0.05944456  0.04238802  0.77645107    -0.40800
C1669       C  0.05116269  0.03355921  0.77338882     0.32400
C1670       C  0.05175133  0.02792657  0.76236438     0.14100
F1671       F  0.07758845  0.04277016  0.74953047    -0.13200
F1672       F  0.04224295  0.03061209  0.78085271    -0.13700
F1673       F  0.07699574  0.05322419  0.77105152    -0.16000
F1674       F  0.04369427  0.01942168  0.75965293    -0.14600
F1675       F  0.08022809  0.01725506  0.74664406    -0.14600
F1676       F  0.04232246  0.02198116  0.71615933    -0.16000
C1677       C  0.94466087  0.42028235  0.81264015     0.14100
C1678       C  0.93841270  0.41485452  0.82185922     0.01000
C1679       C  0.93606727  0.42119810  0.83226015     0.16000
C1680       C  0.94000002  0.43288900  0.83345428     0.25400
C1681       C  0.94643176  0.43832971  0.82427777    -0.40900
C1682       C  0.94867717  0.43189753  0.81382774     0.32500
C1683       C  0.93499171  0.40233596  0.82072793     0.01100
F1684       F  0.92995919  0.41605548  0.84122468    -0.13200
F1685       F  0.95522434  0.43660678  0.80493898    -0.13700
C1686       C  0.94145014  0.39362911  0.82678990     0.16000
C1687       C  0.93946711  0.38165982  0.82441687     0.25400
C1688       C  0.93092794  0.37824234  0.81598862    -0.40800
C1689       C  0.92406086  0.38699117  0.81035672     0.32400
C1690       C  0.92615023  0.39897200  0.81266341     0.14100
F1691       F  0.95010942  0.39675463  0.83453961    -0.13200
F1692       F  0.91591580  0.38401179  0.80202549    -0.13700
F1693       F  0.94606583  0.37341690  0.83018967    -0.16000
F1694       F  0.91987650  0.40732422  0.80669422    -0.14600
F1695       F  0.94723238  0.41415002  0.80262669    -0.14600
F1696       F  0.93735282  0.43892681  0.84349235    -0.16000
C1697       C  0.99451303  0.53519968  0.61351661     0.14100
C1698       C  0.99890428  0.54233479  0.60435830     0.01000
C1699       C  0.99923194  0.55468002  0.60589585     0.16000
C1700       C  0.99533128  0.55980933  0.61648717     0.25400
C1701       C  0.99108319  0.55265671  0.62577225    -0.40900
C1702       C  0.99063925  0.54028849  0.62410969     0.32500
C1703       C  0.00347131  0.53684164  0.59336210     0.01100
F1704       F  0.00332728  0.56176987  0.59710664    -0.13200
F1705       F  0.98623344  0.53307830  0.63263562    -0.13700
C1706       C  0.99599205  0.53010401  0.58604223     0.16000
C1707       C  0.00041718  0.52471331  0.57579725     0.25400
C1708       C  0.01244213  0.52593008  0.57271066    -0.40800
C1709       C  0.01991052  0.53265303  0.58012808     0.32400
C1710       C  0.01544989  0.53807236  0.59031507     0.14100
F1711       F  0.98434004  0.52890573  0.58873104    -0.13200
F1712       F  0.03165182  0.53366240  0.57779568    -0.13700
F1713       F  0.99284101  0.51857998  0.56875858    -0.16000
F1714       F  0.02292515  0.54427146  0.59741338    -0.14600
F1715       F  0.99420595  0.52324078  0.61228742    -0.14600
F1716       F  0.99607239  0.57173790  0.61776435    -0.16000
C1717       C  0.98609641  0.53358118  0.73716342     0.14100
C1718       C  0.97629609  0.53326214  0.74479637     0.01000
C1719       C  0.96543877  0.53794680  0.74096136     0.16000
C1720       C  0.96439096  0.54298915  0.72972027     0.25400
C1721       C  0.97423902  0.54354857  0.72209187    -0.40900
C1722       C  0.98509993  0.53871200  0.72591093     0.32500
C1723       C  0.97720725  0.52774905  0.75664800     0.01100
F1724       F  0.95575452  0.53741252  0.74804632    -0.13200
F1725       F  0.99486726  0.53931079  0.71895990    -0.13700
C1726       C  0.97537614  0.53452392  0.76692290     0.16000
C1727       C  0.97535416  0.52911413  0.77808180     0.25400
C1728       C  0.97702635  0.51680976  0.77911319    -0.40800
C1729       C  0.97914609  0.51010797  0.76880826     0.32400
C1730       C  0.97926222  0.51554096  0.75769250     0.14100
F1731       F  0.97342266  0.54636244  0.76610890    -0.13200
F1732       F  0.98110651  0.49826230  0.76947482    -0.13700
F1733       F  0.97309803  0.53581532  0.78779169    -0.16000
F1734       F  0.98094505  0.50880271  0.74788402    -0.14600
F1735       F  0.99669941  0.52914552  0.74072427    -0.14600
F1736       F  0.95362228  0.54705245  0.72621775    -0.16000
C1737       C  0.16493529  0.78399143  0.75856192     0.14100
C1738       C  0.15761669  0.77663167  0.75172582     0.01000
C1739       C  0.16108838  0.76489028  0.74964528     0.16000
C1740       C  0.17176394  0.76055916  0.75429771     0.25400
C1741       C  0.17920071  0.76791114  0.76117752    -0.40900
C1742       C  0.17560780  0.77970105  0.76325761     0.32500
C1743       C  0.14643721  0.78132059  0.74666190     0.01100
F1744       F  0.15416863  0.75763592  0.74300236    -0.13200
F1745       F  0.18254489  0.78723363  0.76954734    -0.13700
C1746       C  0.14673765  0.78908105  0.73697465     0.16000
C1747       C  0.13625930  0.79401758  0.73250155     0.25400
C1748       C  0.12523834  0.79133382  0.73769303    -0.40800
C1749       C  0.12497484  0.78336025  0.74731015     0.32400
C1750       C  0.13548080  0.77837555  0.75170594     0.14100
F1751       F  0.15722202  0.79181719  0.73179525    -0.13200
F1752       F  0.11462480  0.78071194  0.75278678    -0.13700
F1753       F  0.13691399  0.80122658  0.72291901    -0.16000
F1754       F  0.13499893  0.77089629  0.76109969    -0.14600
F1755       F  0.16170289  0.79537562  0.76069985    -0.14600
F1756       F  0.17462874  0.74906845  0.75225950    -0.16000
C1757       C  0.08573010  0.88488001  0.68891089     0.14100
C1758       C  0.07582233  0.89194819  0.69147266     0.01000
C1759       C  0.06632465  0.88700688  0.69776152     0.16000
C1760       C  0.06676735  0.87525794  0.70160346     0.25400
C1761       C  0.07672578  0.86812705  0.69916430    -0.40900
C1762       C  0.08619065  0.87307098  0.69272209     0.32500
C1763       C  0.07543762  0.90460507  0.68802968     0.01100
F1764       F  0.05658003  0.89361825  0.70022193    -0.13200
F1765       F  0.09582165  0.86644802  0.68993135    -0.13700
C1766       C  0.07557386  0.90801741  0.67607270     0.16000
C1767       C  0.07427393  0.91996784  0.67293525     0.25400
C1768       C  0.07281346  0.92870236  0.68172176    -0.40800
C1769       C  0.07298693  0.92521870  0.69371288     0.32400
C1770       C  0.07433740  0.91332595  0.69679972     0.14100
F1771       F  0.07662201  0.89973638  0.66742787    -0.13200
F1772       F  0.07132218  0.93319877  0.70253218    -0.13700
F1773       F  0.07453600  0.92297985  0.66131291    -0.16000
F1774       F  0.07443016  0.91028098  0.70842720    -0.14600
F1775       F  0.09507021  0.88949611  0.68294103    -0.14600
F1776       F  0.05758020  0.87104813  0.70807897    -0.16000
C1777       C  0.86482377  0.76368706  0.75471335     0.14100
C1778       C  0.85388077  0.76134298  0.74929470     0.01000
C1779       C  0.85347514  0.75393371  0.73931475     0.16000
C1780       C  0.86391757  0.74913307  0.73467230     0.25400
C1781       C  0.87494087  0.75169674  0.73994344    -0.40900
C1782       C  0.87524916  0.75892660  0.75009615     0.32500
C1783       C  0.84297753  0.76691404  0.75392874     0.01100
F1784       F  0.84300284  0.75166834  0.73383785    -0.13200
F1785       F  0.88561396  0.76120369  0.75575504    -0.13700
C1786       C  0.84207490  0.77931108  0.75446860     0.16000
C1787       C  0.83193922  0.78466323  0.75909390     0.25400
C1788       C  0.82249465  0.77770169  0.76324864    -0.40800
C1789       C  0.82339648  0.76527779  0.76268309     0.32400
C1790       C  0.83355379  0.75993279  0.75803561     0.14100
F1791       F  0.85102218  0.78624914  0.75044751    -0.13200
F1792       F  0.81435389  0.75829389  0.76638764    -0.13700
F1793       F  0.83154021  0.79665757  0.75982729    -0.16000
F1794       F  0.83427700  0.74793360  0.75772536    -0.14600
F1795       F  0.86539141  0.77052849  0.76458285    -0.14600
F1796       F  0.86326212  0.74238382  0.72475382    -0.16000
C1797       C  0.94287710  0.66337450  0.69797508     0.14100
C1798       C  0.93517099  0.65753468  0.69018112     0.01000
C1799       C  0.92442693  0.66296725  0.68696628     0.16000
C1800       C  0.92158204  0.67426174  0.69128609     0.25400
C1801       C  0.92947264  0.68023795  0.69886241    -0.40900
C1802       C  0.94005747  0.67458703  0.70229980     0.32500
C1803       C  0.93838683  0.64567340  0.68567881     0.01100
F1804       F  0.91686123  0.65745353  0.67941663    -0.13200
F1805       F  0.94760550  0.67980464  0.71007722    -0.13700
C1806       C  0.93186451  0.63570440  0.68914700     0.16000
C1807       C  0.93563864  0.62434937  0.68596427     0.25400
C1808       C  0.94598295  0.62277538  0.67918142    -0.40800
C1809       C  0.95231562  0.63281952  0.67542753     0.32400
C1810       C  0.94855967  0.64417078  0.67869180     0.14100
F1811       F  0.92211918  0.63694813  0.69605788    -0.13200
F1812       F  0.96250852  0.63165476  0.66918790    -0.13700
F1813       F  0.92920176  0.61488285  0.68960708    -0.16000
F1814       F  0.95501463  0.65371522  0.67527823    -0.14600
F1815       F  0.95309819  0.65811139  0.70154124    -0.14600
F1816       F  0.91136768  0.67951756  0.68770985    -0.16000
C1817       C  0.98381676  0.77824567  0.72254328     0.14100
C1818       C  0.99396731  0.77188823  0.72606412     0.01000
C1819       C  0.99274637  0.76003493  0.72965414     0.16000
C1820       C  0.98166100  0.75455333  0.72944085     0.25400
C1821       C  0.97154610  0.76085954  0.72579022    -0.40900
C1822       C  0.97267560  0.77280875  0.72252921     0.32500
C1823       C  0.00582118  0.77756253  0.72588626     0.01100
F1824       F  0.00229343  0.75377207  0.73345894    -0.13200
F1825       F  0.96310337  0.77904872  0.71875798    -0.13700
C1826       C  0.00777770  0.78827048  0.73193971     0.16000
C1827       C  0.01883510  0.79382084  0.73145251     0.25400
C1828       C  0.02819930  0.78861497  0.72514974    -0.40800
C1829       C  0.02637656  0.77776460  0.71936415     0.32400
C1830       C  0.01523813  0.77234832  0.71960045     0.14100
F1831       F  0.99900986  0.79327785  0.73845300    -0.13200
F1832       F  0.03524359  0.77267745  0.71304923    -0.13700
F1833       F  0.02047211  0.80418143  0.73732809    -0.16000
F1834       F  0.01355142  0.76220161  0.71337221    -0.14600
F1835       F  0.98475602  0.78959306  0.71868566    -0.14600
F1836       F  0.98078927  0.74308854  0.73295757    -0.16000
C1837       C  0.99111207  0.50946261  0.89790273     0.14100
C1838       C  0.00136102  0.51649919  0.89803126     0.01000
C1839       C  0.00722559  0.51880727  0.88733056     0.16000
C1840       C  0.00283415  0.51429674  0.87664009     0.25400
C1841       C  0.99240741  0.50744634  0.87642137    -0.40900
C1842       C  0.98666199  0.50498190  0.88721723     0.32500
C1843       C  0.00582569  0.52162305  0.90928495     0.01100
F1844       F  0.01731421  0.52534091  0.88726589    -0.13200
F1845       F  0.97647053  0.49862285  0.88743419    -0.13700
C1846       C  0.01006027  0.51425949  0.91836934     0.16000
C1847       C  0.01433743  0.51912853  0.92896010     0.25400
C1848       C  0.01444072  0.53150241  0.93069775    -0.40800
C1849       C  0.01012773  0.53884393  0.92153826     0.32400
C1850       C  0.00587278  0.53394032  0.91096784     0.14100
F1851       F  0.01015908  0.50232313  0.91692562    -0.13200
F1852       F  0.01026896  0.55081085  0.92263084    -0.13700
F1853       F  0.01808049  0.51166980  0.93760762    -0.16000
F1854       F  0.00166066  0.54123638  0.90238036    -0.14600
F1855       F  0.98519803  0.50723401  0.90811083    -0.14600
F1856       F  0.00896737  0.51641941  0.86654595    -0.16000
C1857       C  0.24245339  0.78857875  0.17210419     0.14100
C1858       C  0.24955833  0.79195345  0.16249212     0.01000
C1859       C  0.26191546  0.79086053  0.16341243     0.16000
C1860       C  0.26709955  0.78622515  0.17367421     0.25400
C1861       C  0.25999386  0.78249146  0.18319805    -0.40900
C1862       C  0.24761328  0.78383681  0.18235010     0.32500
C1863       C  0.24409427  0.79603899  0.15127236     0.01100
F1864       F  0.26896566  0.79417267  0.15427681    -0.13200
F1865       F  0.24049120  0.78062256  0.19146296    -0.13700
C1866       C  0.23764280  0.80667497  0.15078989     0.16000
C1867       C  0.23248618  0.81042556  0.14012847     0.25400
C1868       C  0.23374014  0.80360702  0.12977388    -0.40800
C1869       C  0.24023090  0.79297081  0.13029824     0.32400
C1870       C  0.24532468  0.78921777  0.14095337     0.14100
F1871       F  0.23653730  0.81352713  0.16059879    -0.13200
F1872       F  0.24131070  0.78597673  0.12058839    -0.13700
F1873       F  0.22656423  0.82088955  0.13984819    -0.16000
F1874       F  0.25126221  0.77875861  0.14127533    -0.14600
F1875       F  0.23048441  0.78953698  0.17141563    -0.14600
F1876       F  0.27904154  0.78489063  0.17403139    -0.16000
C1877       C  0.27968197  0.78248598  0.86167007     0.14100
C1878       C  0.26776246  0.78430642  0.85858810     0.01000
C1879       C  0.26043209  0.79083535  0.86620913     0.16000
C1880       C  0.26488365  0.79528103  0.87687456     0.25400
C1881       C  0.27678341  0.79333678  0.88007115    -0.40900
C1882       C  0.28417660  0.78699362  0.87230216     0.32500
C1883       C  0.26279911  0.77896234  0.84770094     0.01100
F1884       F  0.24885724  0.79263338  0.86345659    -0.13200
F1885       F  0.29563211  0.78473604  0.87519458    -0.13700
C1886       C  0.26243976  0.76659596  0.84644649     0.16000
C1887       C  0.25714795  0.76145760  0.83649558     0.25400
C1888       C  0.25205710  0.76861539  0.82763535    -0.40800
C1889       C  0.25267845  0.78101879  0.82878827     0.32400
C1890       C  0.25800249  0.78614016  0.83874366     0.14100
F1891       F  0.26684040  0.75948291  0.85509296    -0.13200
F1892       F  0.24834715  0.78820232  0.82017269    -0.13700
F1893       F  0.25655797  0.74947130  0.83580872    -0.16000
F1894       F  0.25854679  0.79812103  0.83962372    -0.14600
F1895       F  0.28695063  0.77627987  0.85438844    -0.14600
F1896       F  0.25757299  0.80161333  0.88400099    -0.16000
C1897       C  0.26517976  0.80115912  0.99769701     0.14100
C1898       C  0.25385532  0.80623762  0.99849443     0.01000
C1899       C  0.24847277  0.81084174  0.98824635     0.16000
C1900       C  0.25443533  0.81056967  0.97739454     0.25400
C1901       C  0.26590331  0.80577065  0.97667380    -0.40900
C1902       C  0.27116157  0.80094119  0.98688574     0.32500
C1903       C  0.24775030  0.80687495  0.01005648     0.01100
F1904       F  0.23762025  0.81599016  0.98885376    -0.13200
F1905       F  0.28206175  0.79588140  0.98636175    -0.13700
C1906       C  0.25268372  0.81343606  0.01941522     0.16000
C1907       C  0.24691272  0.81406270  0.03034805     0.25400
C1908       C  0.23607728  0.80817472  0.03207745    -0.40800
C1909       C  0.23117132  0.80159228  0.02269405     0.32400
C1910       C  0.23698075  0.80092740  0.01179038     0.14100
F1911       F  0.26296112  0.81947098  0.01785824    -0.13200
F1912       F  0.22089831  0.79553800  0.02416986    -0.13700
F1913       F  0.25170019  0.82078960  0.03908827    -0.16000
F1914       F  0.23220741  0.79429429  0.00296841    -0.14600
F1915       F  0.27041897  0.79636015  0.00740335    -0.14600
F1916       F  0.24924733  0.81552430  0.96774099    -0.16000
C1917       C  0.01826463  0.94071393  0.99044155     0.14100
C1918       C  0.01655569  0.93813128  0.00246335     0.01000
C1919       C  0.00989986  0.94594915  0.00945586     0.16000
C1920       C  0.00499558  0.95620829  0.00450693     0.25400
C1921       C  0.00658672  0.95880496  0.99241163    -0.40900
C1922       C  0.01330055  0.95091938  0.98543669     0.32500
C1923       C  0.02132063  0.92703724  0.00758793     0.01100
F1924       F  0.00825054  0.94368491  0.02113653    -0.13200
F1925       F  0.01469942  0.95279278  0.97366108    -0.13700
C1926       C  0.03359464  0.92510380  0.00831532     0.16000
C1927       C  0.03802638  0.91443054  0.01285702     0.25400
C1928       C  0.03022374  0.90546965  0.01662752    -0.40800
C1929       C  0.01793364  0.90753071  0.01601866     0.32400
C1930       C  0.01354094  0.91821704  0.01156682     0.14100
F1931       F  0.04127651  0.93357713  0.00463627    -0.13200
F1932       F  0.01012875  0.89928474  0.01993448    -0.13700
F1933       F  0.04992498  0.91272932  0.01318452    -0.16000
F1934       F  0.00164545  0.91987696  0.01092196    -0.14600
F1935       F  0.02443826  0.93312890  0.98345474    -0.14600
F1936       F  0.99891948  0.96371201  0.01165019    -0.16000
C1937       C  0.13575020  0.83076574  0.06760967     0.14100
C1938       C  0.13131094  0.83975220  0.07492585     0.01000
C1939       C  0.13858348  0.84457877  0.08377373     0.16000
C1940       C  0.15021493  0.84044851  0.08526793     0.25400
C1941       C  0.15474803  0.83149605  0.07783537    -0.40900
C1942       C  0.14733184  0.82667277  0.06902501     0.32500
C1943       C  0.11912655  0.84409379  0.07294960     0.01100
F1944       F  0.13441819  0.85328869  0.09092765    -0.13200
F1945       F  0.15118021  0.81782413  0.06186637    -0.13700
C1946       C  0.10947737  0.83672900  0.07550578     0.16000
C1947       C  0.09813166  0.83968214  0.07151958     0.25400
C1948       C  0.09627379  0.84997996  0.06470422    -0.40800
C1949       C  0.10585045  0.85777258  0.06289157     0.32400
C1950       C  0.11718827  0.85483659  0.06701220     0.14100
F1951       F  0.11115878  0.82640123  0.08143377    -0.13200
F1952       F  0.10450224  0.86776762  0.05636262    -0.13700
F1953       F  0.08902214  0.83228284  0.07408884    -0.16000
F1954       F  0.12643666  0.86206985  0.06446519    -0.14600
F1955       F  0.12886523  0.82606533  0.05893159    -0.14600
F1956       F  0.15713689  0.84549887  0.09369948    -0.16000
C1957       C  0.00996968  0.62067064  0.00839572     0.14100
C1958       C  0.99797213  0.62280894  0.00597966     0.01000
C1959       C  0.99135328  0.61432056  0.99980049     0.16000
C1960       C  0.99671335  0.60385791  0.99589464     0.25400
C1961       C  0.00881657  0.60170981  0.99813930    -0.40900
C1962       C  0.01535799  0.61019755  0.00455343     0.32500
C1963       C  0.99249816  0.63414316  0.00945970     0.01100
F1964       F  0.97973928  0.61629250  0.99735424    -0.13200
F1965       F  0.02707647  0.60861338  0.00673429    -0.13700
C1966       C  0.99505277  0.64445303  0.00305401     0.16000
C1967       C  0.98998500  0.65526130  0.00629958     0.25400
C1968       C  0.98232073  0.65595461  0.01609674    -0.40800
C1969       C  0.97969041  0.64554028  0.02244370     0.32400
C1970       C  0.98473697  0.63471223  0.01911813     0.14100
F1971       F  0.00236589  0.64399882  0.99354191    -0.13200
F1972       F  0.97256812  0.64587547  0.03209862    -0.13700
F1973       F  0.99234999  0.66497595  0.99964098    -0.16000
F1974       F  0.98224271  0.62481082  0.02545353    -0.14600
F1975       F  0.01648643  0.62881294  0.01438742    -0.14600
F1976       F  0.98998550  0.59577200  0.99007840    -0.16000
C1977       C  0.99059709  0.77396228  0.01607365     0.14100
C1978       C  0.00214493  0.77506942  0.02064668     0.01000
C1979       C  0.00772680  0.76503136  0.02552779     0.16000
C1980       C  0.00183807  0.75415456  0.02593989     0.25400
C1981       C  0.99015580  0.75319215  0.02177951    -0.40900
C1982       C  0.98460229  0.76314978  0.01677439     0.32500
C1983       C  0.00822441  0.78672921  0.02076721     0.01100
F1984       F  0.01869710  0.76587233  0.03039807    -0.13200
F1985       F  0.97339020  0.76237311  0.01247546    -0.13700
C1986       C  0.00274306  0.79667439  0.02592530     0.16000
C1987       C  0.00875544  0.80748088  0.02667764     0.25400
C1988       C  0.02044527  0.80844099  0.02257087    -0.40800
C1989       C  0.02587924  0.79857873  0.01729119     0.32400
C1990       C  0.01976341  0.78786805  0.01623399     0.14100
F1991       F  0.99176995  0.79579077  0.03073737    -0.13200
F1992       F  0.03710394  0.79935042  0.01307696    -0.13700
F1993       F  0.00339553  0.81681606  0.03202897    -0.16000
F1994       F  0.02512635  0.77858572  0.01079212    -0.14600
F1995       F  0.98512115  0.78335391  0.01091905    -0.14600
F1996       F  0.00731867  0.74473002  0.03102718    -0.16000
C1997       C  0.38685019  0.85116685  0.95139614     0.14100
C1998       C  0.38392733  0.84443383  0.94134349     0.01000
C1999       C  0.39295644  0.84079442  0.93363375     0.16000
C2000       C  0.40478115  0.84345246  0.93616849     0.25400
C2001       C  0.40777163  0.84987501  0.94642121    -0.40900
C2002       C  0.39867694  0.85391035  0.95389982     0.32500
C2003       C  0.37163331  0.84032976  0.93942432     0.01100
F2004       F  0.39036511  0.83416252  0.92394543    -0.13200
F2005       F  0.40126138  0.85987072  0.96401136    -0.13700
C2006       C  0.36540270  0.84330501  0.92906335     0.16000
C2007       C  0.35396386  0.83890083  0.92712444     0.25400
C2008       C  0.34859386  0.83145286  0.93554030    -0.40800
C2009       C  0.35490701  0.82848240  0.94588671     0.32400
C2010       C  0.36628987  0.83289486  0.94780346     0.14100
F2011       F  0.37035683  0.85059093  0.92090275    -0.13200
F2012       F  0.35026899  0.82092487  0.95398370    -0.13700
F2013       F  0.34805369  0.84216502  0.91717298    -0.16000
F2014       F  0.37227053  0.82959096  0.95770782    -0.14600
F2015       F  0.37825353  0.85481044  0.95895526    -0.14600
F2016       F  0.41333429  0.83960613  0.92866364    -0.16000
C2017       C  0.52531782  0.62886832  0.98637680     0.14100
C2018       C  0.51679338  0.62900360  0.99540128     0.01000
C2019       C  0.51243025  0.63990437  0.99947334     0.16000
C2020       C  0.51651510  0.65053596  0.99463768     0.25400
C2021       C  0.52503289  0.65048475  0.98554185    -0.40900
C2022       C  0.52938344  0.63950789  0.98145441     0.32500
C2023       C  0.51213919  0.61783256  0.00044006     0.01100
F2024       F  0.50430049  0.64023942  0.00830444    -0.13200
F2025       F  0.53730005  0.63902505  0.97244497    -0.13700
C2026       C  0.51938699  0.61040543  0.00730524     0.16000
C2027       C  0.51469145  0.60022091  0.01263255     0.25400
C2028       C  0.50262563  0.59727708  0.01116343    -0.40800
C2029       C  0.49544969  0.60478033  0.00418177     0.32400
C2030       C  0.50018583  0.61488205  0.99884928     0.14100
F2031       F  0.53096047  0.61316670  0.00905833    -0.13200
F2032       F  0.48370319  0.60265884  0.00281572    -0.13700
F2033       F  0.52202632  0.59320253  0.01907830    -0.16000
F2034       F  0.49304742  0.62187641  0.99214300    -0.14600
F2035       F  0.52947933  0.61841713  0.98213147    -0.14600
F2036       F  0.51236840  0.66086919  0.99915521    -0.16000
C2037       C  0.49860152  0.75983811  0.96805942     0.14100
C2038       C  0.50377913  0.76928062  0.97437666     0.01000
C2039       C  0.51453333  0.76732441  0.98039173     0.16000
C2040       C  0.52029775  0.75638667  0.97956282     0.25400
C2041       C  0.51522901  0.74706987  0.97305013    -0.40900
C2042       C  0.50419503  0.74878017  0.96756316     0.32500
C2043       C  0.49830194  0.78127219  0.97412628     0.01100
F2044       F  0.51948894  0.77602672  0.98705112    -0.13200
F2045       F  0.49915963  0.73995332  0.96113659    -0.13700
C2046       C  0.48621171  0.78281293  0.97672444     0.16000
C2047       C  0.48085726  0.79391413  0.97540655     0.25400
C2048       C  0.48755872  0.80375907  0.97180648    -0.40800
C2049       C  0.49974055  0.80237413  0.96975492     0.32400
C2050       C  0.50503295  0.79120955  0.97073036     0.14100
F2051       F  0.47957680  0.77356679  0.98057786    -0.13200
F2052       F  0.50641105  0.81171325  0.96619908    -0.13700
F2053       F  0.46913952  0.79507902  0.97782380    -0.16000
F2054       F  0.51663747  0.79003383  0.96783125    -0.14600
F2055       F  0.48841285  0.76146847  0.96186619    -0.14600
F2056       F  0.53082287  0.75486411  0.98519659    -0.16000
C2057       C  0.76169708  0.77053618  0.17274136     0.14100
C2058       C  0.76656216  0.77748645  0.16367882     0.01000
C2059       C  0.76568160  0.78987515  0.16431685     0.16000
C2060       C  0.75992252  0.79525184  0.17384964     0.25400
C2061       C  0.75493401  0.78830473  0.18289117    -0.40900
C2062       C  0.75590997  0.77588995  0.18226650     0.32500
C2063       C  0.77199320  0.77182708  0.15323075     0.01100
F2064       F  0.77006082  0.79674340  0.15548938    -0.13200
F2065       F  0.75151929  0.76892769  0.19100836    -0.13700
C2066       C  0.76502469  0.76485646  0.14566187     0.16000
C2067       C  0.76984628  0.76015271  0.13530905     0.25400
C2068       C  0.78175650  0.76231499  0.13235503    -0.40800
C2069       C  0.78883452  0.76900236  0.14015299     0.32400
C2070       C  0.78396342  0.77375379  0.15049475     0.14100
F2071       F  0.75341773  0.76292719  0.14811910    -0.13200
F2072       F  0.80030135  0.77142831  0.13751925    -0.13700
F2073       F  0.76284497  0.75345066  0.12819061    -0.16000
F2074       F  0.79088826  0.78034998  0.15778940    -0.14600
F2075       F  0.76263981  0.75855216  0.17239024    -0.14600
F2076       F  0.75882475  0.80722513  0.17398802    -0.16000
C2077       C  0.87280240  0.71988595  0.08050291     0.14100
C2078       C  0.87760650  0.72124836  0.06914927     0.01000
C2079       C  0.87115998  0.72736000  0.06047891     0.16000
C2080       C  0.85996702  0.73190149  0.06301725     0.25400
C2081       C  0.85484810  0.73022183  0.07427686    -0.40900
C2082       C  0.86147581  0.72425985  0.08304628     0.32500
C2083       C  0.88947269  0.71662724  0.06624373     0.01100
F2084       F  0.87584101  0.72913343  0.04955865    -0.13200
F2085       F  0.85691631  0.72230860  0.09396820    -0.13700
C2086       C  0.89077378  0.70791700  0.05746474     0.16000
C2087       C  0.90203313  0.70480737  0.05338014     0.25400
C2088       C  0.91213854  0.71047534  0.05795854    -0.40800
C2089       C  0.91083299  0.71871656  0.06721588     0.32400
C2090       C  0.89957630  0.72175716  0.07133445     0.14100
F2091       F  0.88108230  0.70278033  0.05252414    -0.13200
F2092       F  0.92045433  0.72402908  0.07210332    -0.13700
F2093       F  0.90295854  0.69689015  0.04438937    -0.16000
F2094       F  0.89850084  0.73020629  0.07981573    -0.14600
F2095       F  0.87898651  0.71409038  0.08903947    -0.14600
F2096       F  0.85434193  0.73821868  0.05447465    -0.16000
C2097       C  0.74506278  0.76136014  0.87072966     0.14100
C2098       C  0.73757773  0.76640534  0.86218312     0.01000
C2099       C  0.72545442  0.76763677  0.86461069     0.16000
C2100       C  0.72091082  0.76420875  0.87558867     0.25400
C2101       C  0.72845309  0.75947977  0.88434242    -0.40900
C2102       C  0.74055591  0.75793713  0.88172272     0.32500
C2103       C  0.74252387  0.77112336  0.85105242     0.01100
F2104       F  0.71804801  0.77233383  0.85636989    -0.13200
F2105       F  0.74804961  0.75304377  0.88976009    -0.13700
C2106       C  0.74767182  0.76355210  0.84266558     0.16000
C2107       C  0.75239760  0.76816293  0.83219296     0.25400
C2108       C  0.75212374  0.78045992  0.82999167    -0.40800
C2109       C  0.74702213  0.78800013  0.83850188     0.32400
C2110       C  0.74224736  0.78335680  0.84890485     0.14100
F2111       F  0.74795973  0.75167809  0.84455226    -0.13200
F2112       F  0.74704116  0.79992436  0.83701197    -0.13700
F2113       F  0.75697655  0.76054605  0.82411036    -0.16000
F2114       F  0.73761148  0.79085184  0.85707555    -0.14600
F2115       F  0.75681999  0.76009994  0.86856035    -0.14600
F2116       F  0.70924138  0.76603375  0.87779826    -0.16000
C2117       C  0.64063866  0.72166649  0.95529005     0.14100
C2118       C  0.63564229  0.71425191  0.94667282     0.01000
C2119       C  0.64212025  0.71155423  0.93644076     0.16000
C2120       C  0.65340852  0.71636876  0.93475399     0.25400
C2121       C  0.65832934  0.72410926  0.94322504    -0.40900
C2122       C  0.65183994  0.72660176  0.95358182     0.32500
C2123       C  0.62331028  0.71015163  0.94803886     0.01100
F2124       F  0.63747532  0.70427973  0.92807000    -0.13200
F2125       F  0.65601888  0.73427266  0.96183555    -0.13700
C2126       C  0.61442529  0.71479969  0.94068442     0.16000
C2127       C  0.60253014  0.71222886  0.94286735     0.25400
C2128       C  0.59934158  0.70483184  0.95235306    -0.40800
C2129       C  0.60829519  0.69972037  0.95937333     0.32400
C2130       C  0.62020202  0.70245699  0.95728715     0.14100
F2131       F  0.61725194  0.72228180  0.93171902    -0.13200
F2132       F  0.60549914  0.69265255  0.96867132    -0.13700
F2133       F  0.59410664  0.71706676  0.93576474    -0.16000
F2134       F  0.62869222  0.69785962  0.96447193    -0.14600
F2135       F  0.63441526  0.72455758  0.96514878    -0.14600
F2136       F  0.65954650  0.71332096  0.92490022    -0.16000
C2137       C  0.75720378  0.75271087  0.99304689     0.14100
C2138       C  0.75225016  0.75838463  0.00293960     0.01000
C2139       C  0.74123074  0.76404070  0.00188244     0.16000
C2140       C  0.73506650  0.76372946  0.99116478     0.25400
C2141       C  0.73986585  0.75779477  0.98134119    -0.40900
C2142       C  0.75107561  0.75246112  0.98229258     0.32500
C2143       C  0.75842512  0.75806780  0.01444801     0.01100
F2144       F  0.73643980  0.76982503  0.01125896    -0.13200
F2145       F  0.75578694  0.74642703  0.97303518    -0.13700
C2146       C  0.76969977  0.76314439  0.01564688     0.16000
C2147       C  0.77583911  0.76224556  0.02634403     0.25400
C2148       C  0.77075091  0.75631234  0.03601643    -0.40800
C2149       C  0.75931368  0.75153950  0.03492684     0.32400
C2150       C  0.75321279  0.75236071  0.02418324     0.14100
F2151       F  0.77474648  0.76896818  0.00643661    -0.13200
F2152       F  0.75430832  0.74554278  0.04404710    -0.13700
F2153       F  0.78672362  0.76726413  0.02728974    -0.16000
F2154       F  0.74241643  0.74717236  0.02312434    -0.14600
F2155       F  0.76774019  0.74697215  0.99396244    -0.14600
F2156       F  0.72441087  0.76925704  0.99036408    -0.16000
C2157       C  0.50366347  0.93962479  0.99439582     0.14100
C2158       C  0.49773609  0.93180444  0.00199937     0.01000
C2159       C  0.49708129  0.93448914  0.01411169     0.16000
C2160       C  0.50231884  0.94482159  0.01857569     0.25400
C2161       C  0.50825012  0.95274480  0.01096588    -0.40900
C2162       C  0.50881681  0.95000526  0.99879923     0.32500
C2163       C  0.49230798  0.92081201  0.99728299     0.01100
F2164       F  0.49156657  0.92695028  0.02166382    -0.13200
F2165       F  0.51400180  0.95754363  0.99103319    -0.13700
C2166       C  0.49943773  0.91197001  0.99224722     0.16000
C2167       C  0.49436276  0.90160894  0.98772104     0.25400
C2168       C  0.48199764  0.89985106  0.98815159    -0.40800
C2169       C  0.47487485  0.90877271  0.99321823     0.32400
C2170       C  0.47999398  0.91914343  0.99772072     0.14100
F2171       F  0.51137464  0.91334113  0.99179519    -0.13200
F2172       F  0.46297208  0.90739117  0.99409425    -0.13700
F2173       F  0.50158873  0.89347048  0.98263535    -0.16000
F2174       F  0.47290144  0.92765461  0.00238674    -0.14600
F2175       F  0.50423241  0.93732283  0.98261700    -0.14600
F2176       F  0.50184301  0.94685984  0.03039960    -0.16000
C2177       C  0.91876394  0.03822573  0.99236045     0.14100
C2178       C  0.91102754  0.03005028  0.99768693     0.01000
C2179       C  0.91402091  0.01796609  0.99757324     0.16000
C2180       C  0.92472417  0.01416935  0.99264155     0.25400
C2181       C  0.93264701  0.02236627  0.98761935    -0.40900
C2182       C  0.92944957  0.03442025  0.98732634     0.32500
C2183       C  0.90002692  0.03413737  0.00365556     0.01100
F2184       F  0.90650502  0.00979529  0.00216136    -0.13200
F2185       F  0.93688091  0.04261086  0.98264355    -0.13700
C2186       C  0.89150792  0.04079020  0.99745893     0.16000
C2187       C  0.88125275  0.04477522  0.00316439     0.25400
C2188       C  0.87929477  0.04219067  0.01519726    -0.40800
C2189       C  0.88780905  0.03551172  0.02138963     0.32400
C2190       C  0.89805499  0.03150199  0.01566669     0.14100
F2191       F  0.89304060  0.04330237  0.98581287    -0.13200
F2192       F  0.88607749  0.03258141  0.03290548    -0.13700
F2193       F  0.87336824  0.05142105  0.99696531    -0.16000
F2194       F  0.90614992  0.02515508  0.02191448    -0.14600
F2195       F  0.91617463  0.04997062  0.99241561    -0.14600
F2196       F  0.92721551  0.00240662  0.99257969    -0.16000
C2197       C  0.58512916  0.04333913  0.99776168     0.14100
C2198       C  0.59454447  0.03632165  0.99368041     0.01000
C2199       C  0.59348196  0.02392636  0.99407202     0.16000
C2200       C  0.58327688  0.01861654  0.99867423     0.25400
C2201       C  0.57390785  0.02561775  0.00300596    -0.40900
C2202       C  0.57489764  0.03805244  0.00234752     0.32500
C2203       C  0.60548907  0.04185406  0.98897678     0.01100
F2204       F  0.60251282  0.01694481  0.99029538    -0.13200
F2205       F  0.56585750  0.04512778  0.00590929    -0.13700
C2206       C  0.61275113  0.04886891  0.99627854     0.16000
C2207       C  0.62343259  0.05349524  0.99196296     0.25400
C2208       C  0.62696934  0.05127721  0.98022440    -0.40800
C2209       C  0.61953473  0.04444344  0.97288635     0.32400
C2210       C  0.60893024  0.03978160  0.97722984     0.14100
F2211       F  0.60962698  0.05099954  0.00767821    -0.13200
F2212       F  0.62272356  0.04184914  0.96160736    -0.13700
F2213       F  0.63022397  0.06026727  0.99921767    -0.16000
F2214       F  0.60199760  0.03318421  0.96994505    -0.14600
F2215       F  0.58577732  0.05532985  0.99713973    -0.14600
F2216       F  0.58281594  0.00662519  0.99932094    -0.16000
C2217       C  0.73843454  0.06138602  0.00241114     0.14100
C2218       C  0.74790911  0.05636603  0.99605387     0.01000
C2219       C  0.74588696  0.05229205  0.98447282     0.16000
C2220       C  0.73469848  0.05342400  0.97926714     0.25400
C2221       C  0.72523897  0.05851481  0.98558952    -0.40900
C2222       C  0.72717882  0.06234045  0.99727021     0.32500
C2223       C  0.75988412  0.05546572  0.00146884     0.01100
F2224       F  0.75472406  0.04705985  0.97823134    -0.13200
F2225       F  0.71832703  0.06749921  0.00354115    -0.13700
C2226       C  0.76139249  0.05003775  0.01257429     0.16000
C2227       C  0.77253871  0.04974615  0.01797643     0.25400
C2228       C  0.78244315  0.05459784  0.01224741    -0.40800
C2229       C  0.78106418  0.05962727  0.00096175     0.32400
C2230       C  0.76985394  0.06019724  0.99567627     0.14100
F2231       F  0.75206453  0.04495369  0.01817608    -0.13200
F2232       F  0.79045292  0.06456336  0.99532881    -0.13700
F2233       F  0.77368592  0.04460833  0.02878161    -0.16000
F2234       F  0.76867062  0.06580190  0.98510977    -0.14600
F2235       F  0.74017179  0.06574353  0.01347811    -0.14600
F2236       F  0.73307440  0.04930879  0.96809295    -0.16000
C2237       C  0.75161055  0.87425515  0.26377134     0.14100
C2238       C  0.76375597  0.87658593  0.26249183     0.01000
C2239       C  0.77088905  0.86852181  0.25629350     0.16000
C2240       C  0.76597166  0.85826522  0.25143003     0.25400
C2241       C  0.75379747  0.85588439  0.25268033    -0.40900
C2242       C  0.74666440  0.86398125  0.25892710     0.32500
C2243       C  0.76900795  0.88751457  0.26742694     0.01100
F2244       F  0.78261401  0.87069979  0.25477801    -0.13200
F2245       F  0.73483532  0.86217371  0.26003513    -0.13700
C2246       C  0.77800080  0.88685354  0.27599969     0.16000
C2247       C  0.78333943  0.89717139  0.28029880     0.25400
C2248       C  0.77972864  0.90836647  0.27612168    -0.40800
C2249       C  0.77059303  0.90897129  0.26760834     0.32400
C2250       C  0.76531060  0.89863858  0.26330393     0.14100
F2251       F  0.78161126  0.87617734  0.28020701    -0.13200
F2252       F  0.76657995  0.91955616  0.26355892    -0.13700
F2253       F  0.79230379  0.89613821  0.28824967    -0.16000
F2254       F  0.75672669  0.89948027  0.25490906    -0.14600
F2255       F  0.74455072  0.88192181  0.26975923    -0.14600
F2256       F  0.77319969  0.85056572  0.24569864    -0.16000
C2257       C  0.76902094  0.17191093  0.22437032     0.14100
C2258       C  0.77090473  0.17400571  0.23649611     0.01000
C2259       C  0.77814434  0.16619253  0.24293699     0.16000
C2260       C  0.78311402  0.15625253  0.23745155     0.25400
C2261       C  0.78097642  0.15393919  0.22538384    -0.40900
C2262       C  0.77405889  0.16200578  0.21884092     0.32500
C2263       C  0.76499321  0.18407769  0.24253466     0.01100
F2264       F  0.78010494  0.16799190  0.25465840    -0.13200
F2265       F  0.77173164  0.16005505  0.20721523    -0.13700
C2266       C  0.75256932  0.18470934  0.24293365     0.16000
C2267       C  0.74693037  0.19408847  0.24875046     0.25400
C2268       C  0.75361079  0.20301417  0.25433110    -0.40800
C2269       C  0.76606191  0.20230665  0.25403181     0.32400
C2270       C  0.77169262  0.19294158  0.24815295     0.14100
F2271       F  0.74588520  0.17606156  0.23791759    -0.13200
F2272       F  0.77280584  0.21087625  0.25909364    -0.13700
F2273       F  0.73491917  0.19422569  0.24923933    -0.16000
F2274       F  0.78370612  0.19264516  0.24773848    -0.14600
F2275       F  0.76221587  0.17943586  0.21790025    -0.14600
F2276       F  0.79009961  0.14892900  0.24395567    -0.16000
C2277       C  0.82555320  0.10596205  0.13081272     0.14100
C2278       C  0.82197126  0.09519490  0.12569056     0.01000
C2279       C  0.81501088  0.08733097  0.13229562     0.16000
C2280       C  0.81188613  0.09002782  0.14393599     0.25400
C2281       C  0.81567979  0.10066442  0.14922839    -0.40900
C2282       C  0.82241440  0.10869561  0.14251512     0.32500
C2283       C  0.82536603  0.09203566  0.11344581     0.01100
F2284       F  0.81114861  0.07704633  0.12740171    -0.13200
F2285       F  0.82636642  0.11892880  0.14743035    -0.13700
C2286       C  0.83310141  0.08250653  0.11136800     0.16000
C2287       C  0.83539583  0.07869509  0.09980450     0.25400
C2288       C  0.82982827  0.08424028  0.09013616    -0.40800
C2289       C  0.82229988  0.09397550  0.09223365     0.32400
C2290       C  0.82015240  0.09788118  0.10379539     0.14100
F2291       F  0.83816947  0.07668211  0.12059086    -0.13200
F2292       F  0.81690808  0.09963244  0.08308855    -0.13700
F2293       F  0.84246988  0.06911861  0.09812890    -0.16000
F2294       F  0.81256394  0.10703374  0.10561723    -0.14600
F2295       F  0.83235384  0.11365063  0.12458292    -0.14600
F2296       F  0.80495453  0.08229524  0.14997263    -0.16000
C2297       C  0.81039451  0.03942380  0.23697523     0.14100
C2298       C  0.80098553  0.03580319  0.24423425     0.01000
C2299       C  0.79119256  0.04337711  0.24568885     0.16000
C2300       C  0.79079381  0.05434791  0.23990320     0.25400
C2301       C  0.80021100  0.05793959  0.23260079    -0.40900
C2302       C  0.81005737  0.05039371  0.23129655     0.32500
C2303       C  0.80157411  0.02424900  0.25045584     0.01100
F2304       F  0.78207777  0.04021310  0.25283730    -0.13200
F2305       F  0.81953117  0.05372102  0.22471450    -0.13700
C2306       C  0.81129169  0.02159624  0.25777474     0.16000
C2307       C  0.81198577  0.01072397  0.26360377     0.25400
C2308       C  0.80283109  0.00233437  0.26248071    -0.40800
C2309       C  0.79315395  0.00492433  0.25502159     0.32400
C2310       C  0.79256782  0.01576882  0.24902662     0.14100
F2311       F  0.82007288  0.02963843  0.25944702    -0.13200
F2312       F  0.78407739  0.99714905  0.25377161    -0.13700
F2313       F  0.82177359  0.00835831  0.27018720    -0.16000
F2314       F  0.78324052  0.01795132  0.24174077    -0.14600
F2315       F  0.81990039  0.03225364  0.23526152    -0.14600
F2316       F  0.78105976  0.06128607  0.24119602    -0.16000
C2317       C  0.88581079  0.02200284  0.50235794     0.14100
C2318       C  0.89700855  0.01779622  0.49896452     0.01000
C2319       C  0.89778439  0.00906804  0.49014367     0.16000
C2320       C  0.88754090  0.00462505  0.48476796     0.25400
C2321       C  0.87628695  0.00882308  0.48812376    -0.40900
C2322       C  0.87553947  0.01756954  0.49699506     0.32500
C2323       C  0.90791240  0.02269375  0.50439738     0.01100
F2324       F  0.90849561  0.00470376  0.48686282    -0.13200
F2325       F  0.86490809  0.02215555  0.50021345    -0.13700
C2326       C  0.91000344  0.02159788  0.51661296     0.16000
C2327       C  0.92037120  0.02618948  0.52166889     0.25400
C2328       C  0.92881308  0.03199967  0.51458014    -0.40800
C2329       C  0.92667097  0.03304583  0.50233591     0.32400
C2330       C  0.91632635  0.02845597  0.49731885     0.14100
F2331       F  0.90205225  0.01595573  0.52362338    -0.13200
F2332       F  0.93472064  0.03824956  0.49511133    -0.13700
F2333       F  0.92197803  0.02520748  0.53353474    -0.16000
F2334       F  0.91445226  0.02975515  0.48551669    -0.14600
F2335       F  0.88484802  0.03065572  0.51064682    -0.14600
F2336       F  0.88865766  0.99596567  0.47651513    -0.16000
C2337       C  0.83673885  0.96601861  0.39118125     0.14100
C2338       C  0.82687498  0.96986110  0.38458697     0.01000
C2339       C  0.81793777  0.97636575  0.39029828     0.16000
C2340       C  0.81883290  0.97902994  0.40232526     0.25400
C2341       C  0.82864416  0.97515320  0.40897818    -0.40900
C2342       C  0.83762859  0.96866064  0.40328314     0.32500
C2343       C  0.82580998  0.96728521  0.37174129     0.01100
F2344       F  0.80822257  0.98006352  0.38422681    -0.13200
F2345       F  0.84712324  0.96462714  0.40947622    -0.13700
C2346       C  0.82576212  0.95557500  0.36752488     0.16000
C2347       C  0.82372232  0.95321900  0.35550697     0.25400
C2348       C  0.82149607  0.96253752  0.34748137    -0.40800
C2349       C  0.82181725  0.97428412  0.35176751     0.32400
C2350       C  0.82409358  0.97659821  0.36369401     0.14100
F2351       F  0.82728771  0.94637758  0.37511510    -0.13200
F2352       F  0.81940164  0.98362763  0.34461835    -0.13700
F2353       F  0.82396416  0.94179979  0.35177746    -0.16000
F2354       F  0.82443273  0.98802283  0.36744404    -0.14600
F2355       F  0.84558145  0.95985477  0.38586855    -0.14600
F2356       F  0.81020264  0.98569633  0.40737596    -0.16000
C2357       C  0.60793812  0.01440631  0.53176506     0.14100
C2358       C  0.60436943  0.01218030  0.52004184     0.01000
C2359       C  0.61157803  0.00508270  0.51280454     0.16000
C2360       C  0.62227930  0.00051668  0.51708877     0.25400
C2361       C  0.62600141  0.00291498  0.52873850    -0.40900
C2362       C  0.61863614  0.00978220  0.53609406     0.32500
C2363       C  0.59349061  0.01769428  0.51505944     0.01100
F2364       F  0.60841921  0.00286633  0.50141850    -0.13200
F2365       F  0.62200046  0.01243799  0.54732360    -0.13700
C2366       C  0.59245443  0.03008036  0.51443464     0.16000
C2367       C  0.58283218  0.03532589  0.50859544     0.25400
C2368       C  0.57400625  0.02827686  0.50326215    -0.40800
C2369       C  0.57487596  0.01586188  0.50425439     0.32400
C2370       C  0.58450738  0.01064092  0.51010451     0.14100
F2371       F  0.60106961  0.03711806  0.51900741    -0.13200
F2372       F  0.56633841  0.00873485  0.49969112    -0.13700
F2373       F  0.58251859  0.04730389  0.50766190    -0.16000
F2374       F  0.58509094  0.99865592  0.51091195    -0.14600
F2375       F  0.60108620  0.02111716  0.53900386    -0.14600
F2376       F  0.62894431  0.99363795  0.50983840    -0.16000
C2377       C  0.73558965  0.98901103  0.49935132     0.14100
C2378       C  0.74549407  0.99246866  0.50612074     0.01000
C2379       C  0.74391938  0.99534561  0.51810565     0.16000
C2380       C  0.73280618  0.99425385  0.52337315     0.25400
C2381       C  0.72297286  0.99041434  0.51673023    -0.40900
C2382       C  0.72439193  0.98807792  0.50460075     0.32500
C2383       C  0.75753265  0.99260031  0.50086754     0.01100
F2384       F  0.75318302  0.99919954  0.52474772    -0.13200
F2385       F  0.71510033  0.98426764  0.49798061    -0.13700
C2386       C  0.75983881  0.99907131  0.49049730     0.16000
C2387       C  0.77105692  0.99869090  0.48528409     0.25400
C2388       C  0.78022411  0.99206212  0.49049902    -0.40800
C2389       C  0.77806824  0.98592757  0.50107467     0.32400
C2390       C  0.76677762  0.98606606  0.50614024     0.14100
F2391       F  0.75125691  0.00585364  0.48548079    -0.13200
F2392       F  0.78674316  0.97934304  0.50619618    -0.13700
F2393       F  0.77303390  0.00496081  0.47522998    -0.16000
F2394       F  0.76476652  0.97946919  0.51597857    -0.14600
F2395       F  0.73685505  0.98601185  0.48778751    -0.14600
F2396       F  0.73165818  0.99704457  0.53500136    -0.16000
C2397       C  0.75955035  0.19294876  0.76787882     0.14100
C2398       C  0.75423559  0.18428647  0.76071049     0.01000
C2399       C  0.75368116  0.18608603  0.74842347     0.16000
C2400       C  0.75842979  0.19633448  0.74335579     0.25400
C2401       C  0.76384753  0.20502232  0.75049481    -0.40900
C2402       C  0.76430225  0.20322365  0.76283604     0.32500
C2403       C  0.74934462  0.17330689  0.76597241     0.01100
F2404       F  0.74844166  0.17791708  0.74131876    -0.13200
F2405       F  0.76909070  0.21151941  0.77009617    -0.13700
C2406       C  0.74001792  0.17382227  0.77417083     0.16000
C2407       C  0.73509321  0.16339233  0.77872774     0.25400
C2408       C  0.73943331  0.15224727  0.77516325    -0.40800
C2409       C  0.74895421  0.15179956  0.76713110     0.32400
C2410       C  0.75383614  0.16221844  0.76258682     0.14100
F2411       F  0.73543325  0.18443457  0.77748147    -0.13200
F2412       F  0.75377579  0.14128505  0.76386266    -0.13700
F2413       F  0.72578963  0.16422326  0.78626832    -0.16000
F2414       F  0.76308365  0.16148910  0.75495749    -0.14600
F2415       F  0.76029677  0.19136942  0.77976784    -0.14600
F2416       F  0.75798925  0.19755697  0.73141651    -0.16000
C2417       C  0.68821523  0.10451072  0.86395919     0.14100
C2418       C  0.69073659  0.09401125  0.87012073     0.01000
C2419       C  0.69826660  0.08556803  0.86500751     0.16000
C2420       C  0.70309348  0.08747603  0.85380621     0.25400
C2421       C  0.70041973  0.09787325  0.84744623    -0.40900
C2422       C  0.69298718  0.10642506  0.85267666     0.32500
C2423       C  0.68600652  0.09190346  0.88211214     0.01100
F2424       F  0.70115721  0.07555695  0.87102071    -0.13200
F2425       F  0.69002840  0.11645432  0.84674617    -0.13700
C2426       C  0.67787924  0.08270016  0.88411700     0.16000
C2427       C  0.67485933  0.07944713  0.89568410     0.25400
C2428       C  0.68012892  0.08522613  0.90537273    -0.40800
C2429       C  0.68775615  0.09485546  0.90331272     0.32400
C2430       C  0.69061801  0.09820819  0.89176575     0.14100
F2431       F  0.67325814  0.07657005  0.87486158    -0.13200
F2432       F  0.69266209  0.10085077  0.91251092    -0.13700
F2433       F  0.66746601  0.07013159  0.89739666    -0.16000
F2434       F  0.69843313  0.10716714  0.89001346    -0.14600
F2435       F  0.68099168  0.11280545  0.86880498    -0.14600
F2436       F  0.71066796  0.07927456  0.84935263    -0.16000
C2437       C  0.74106355  0.89203899  0.75231411     0.14100
C2438       C  0.74666011  0.88334623  0.74540666     0.01000
C2439       C  0.74795901  0.88521721  0.73319096     0.16000
C2440       C  0.74349376  0.89551378  0.72791857     0.25400
C2441       C  0.73770356  0.90415599  0.73479523    -0.40900
C2442       C  0.73664733  0.90236404  0.74707324     0.32500
C2443       C  0.75083072  0.87219850  0.75092431     0.01100
F2444       F  0.75332059  0.87693763  0.72632214    -0.13200
F2445       F  0.73095860  0.91039232  0.75396643    -0.13700
C2446       C  0.74272819  0.86460394  0.75648497     0.16000
C2447       C  0.74658033  0.85408322  0.76176876     0.25400
C2448       C  0.75866334  0.85096028  0.76164686    -0.40800
C2449       C  0.76677428  0.85862677  0.75604834     0.32400
C2450       C  0.76287068  0.86910870  0.75069757     0.14100
F2451       F  0.73099867  0.86726374  0.75655512    -0.13200
F2452       F  0.77854851  0.85620184  0.75601709    -0.13700
F2453       F  0.73838302  0.84679615  0.76664574    -0.16000
F2454       F  0.77089529  0.87638212  0.74549939    -0.14600
F2455       F  0.73986981  0.89050168  0.76416842    -0.14600
F2456       F  0.74500853  0.89709997  0.71611117    -0.16000
C2457       C  0.69682586  0.94155215  0.63743328     0.14100
C2458       C  0.68849223  0.95013986  0.63398204     0.01000
C2459       C  0.68271282  0.95685336  0.64267662     0.16000
C2460       C  0.68570139  0.95551545  0.65459465     0.25400
C2461       C  0.69452788  0.94740240  0.65805747    -0.40900
C2462       C  0.69978433  0.94013487  0.64939927     0.32500
C2463       C  0.68679885  0.95321707  0.62137293     0.01100
F2464       F  0.67466718  0.96523940  0.63954718    -0.13200
F2465       F  0.70834606  0.93222981  0.65237992    -0.13700
C2466       C  0.67560435  0.95232775  0.61601715     0.16000
C2467       C  0.67370913  0.95683997  0.60462639     0.25400
C2468       C  0.68297831  0.96241643  0.59843414    -0.40800
C2469       C  0.69428012  0.96298577  0.60375427     0.32400
C2470       C  0.69616025  0.95837128  0.61507091     0.14100
F2471       F  0.66647789  0.94719518  0.62189477    -0.13200
F2472       F  0.70341699  0.96856920  0.59832697    -0.13700
F2473       F  0.66282743  0.95564853  0.59965150    -0.16000
F2474       F  0.70701005  0.95952004  0.62015532    -0.14600
F2475       F  0.70240566  0.93485686  0.62916283    -0.14600
F2476       F  0.68011544  0.96236743  0.66272901    -0.16000
C2477       C  0.72860855  0.01589238  0.74654966     0.14100
C2478       C  0.71928814  0.02380627  0.74420685     0.01000
C2479       C  0.70999861  0.02025498  0.73675396     0.16000
C2480       C  0.71000888  0.00895972  0.73169408     0.25400
C2481       C  0.71931875  0.00095941  0.73403101    -0.40900
C2482       C  0.72861608  0.00454450  0.74154193     0.32500
C2483       C  0.71897179  0.03554968  0.75000184     0.01100
F2484       F  0.70088597  0.02775148  0.73439012    -0.13200
F2485       F  0.73783307  0.99717509  0.74386999    -0.13700
C2486       C  0.72768823  0.04408341  0.74758956     0.16000
C2487       C  0.72770945  0.05492090  0.75363434     0.25400
C2488       C  0.71907918  0.05729998  0.76229283    -0.40800
C2489       C  0.71011523  0.04888738  0.76434665     0.32400
C2490       C  0.71006418  0.03812936  0.75824886     0.14100
F2491       F  0.73622245  0.04186240  0.73943816    -0.13200
F2492       F  0.70132175  0.05109278  0.77222111    -0.13700
F2493       F  0.73645637  0.06283787  0.75137515    -0.16000
F2494       F  0.70148976  0.03005915  0.76065095    -0.14600
F2495       F  0.73758425  0.01909044  0.75389624    -0.14600
F2496       F  0.70068055  0.00574712  0.72481658    -0.16000
C2497       C  0.24577935  0.26579671  0.37777755     0.14100
C2498       C  0.24098542  0.26332424  0.36657192     0.01000
C2499       C  0.23137495  0.25547441  0.36570301     0.16000
C2500       C  0.22672448  0.25006246  0.37582509     0.25400
C2501       C  0.23157162  0.25241614  0.38709558    -0.40900
C2502       C  0.24109662  0.26047195  0.38793372     0.32500
C2503       C  0.24602792  0.26884023  0.35576339     0.01100
F2504       F  0.22669376  0.25276738  0.35496186    -0.13200
F2505       F  0.24574460  0.26348201  0.39859896    -0.13700
C2506       C  0.25793962  0.26696852  0.35269834     0.16000
C2507       C  0.26257580  0.27182278  0.34228620     0.25400
C2508       C  0.25537519  0.27863956  0.33468142    -0.40800
C2509       C  0.24347548  0.28063431  0.33788391     0.32400
C2510       C  0.23887771  0.27580191  0.34831900     0.14100
F2511       F  0.26504628  0.26022446  0.35968640    -0.03600
F2512       F  0.23612769  0.28694693  0.33075739    -0.13700
F2513       F  0.27418880  0.27000786  0.33979422    -0.16000
F2514       F  0.22740602  0.27796021  0.35119225    -0.14600
F2515       F  0.25489873  0.27354952  0.37891452    -0.14600
F2516       F  0.21774748  0.24219911  0.37446260    -0.16000
C2517       C  0.26602107  0.29300474  0.66168833     0.14100
C2518       C  0.26563811  0.28077207  0.65941551     0.01000
C2519       C  0.26040500  0.27323527  0.66779769     0.16000
C2520       C  0.25542282  0.27783913  0.67814264     0.25400
C2521       C  0.25555683  0.29011963  0.68035616    -0.40900
C2522       C  0.26105047  0.29764210  0.67205600     0.32500
C2523       C  0.27055707  0.27581877  0.64828282     0.01100
F2524       F  0.26027530  0.26133864  0.66604002    -0.13200
F2525       F  0.26124632  0.30954437  0.67370915    -0.13700
C2526       C  0.28251131  0.27754526  0.64530706     0.16000
C2527       C  0.28721515  0.27245549  0.63503643     0.25400
C2528       C  0.28006269  0.26548826  0.62754820    -0.40800
C2529       C  0.26803702  0.26392509  0.63047070     0.32400
C2530       C  0.26334345  0.26907182  0.64070083     0.14100
F2531       F  0.28972257  0.28393498  0.65250487    -0.13200
F2532       F  0.26086799  0.25705410  0.62369407    -0.13700
F2533       F  0.29874760  0.27449106  0.63235976    -0.16000
F2534       F  0.25170123  0.26745474  0.64321909    -0.14600
F2535       F  0.27089509  0.30051899  0.65368497    -0.14600
F2536       F  0.25073661  0.27019134  0.68612131    -0.16000
C2537       C  0.26073705  0.22563560  0.49235896     0.14100
C2538       C  0.25420935  0.22836588  0.50258878     0.01000
C2539       C  0.24197523  0.23042412  0.50162697     0.16000
C2540       C  0.23631308  0.22956099  0.49066013     0.25400
C2541       C  0.24279780  0.22665286  0.48044462    -0.40900
C2542       C  0.25507804  0.22482089  0.48135936     0.32500
C2543       C  0.26006889  0.22882556  0.51431009     0.01100
F2544       F  0.23545416  0.23301569  0.51137418    -0.13200
F2545       F  0.26152752  0.22183550  0.47168138    -0.13700
C2546       C  0.25960371  0.23918158  0.52117545     0.16000
C2547       C  0.26492633  0.23953659  0.53235191     0.25400
C2548       C  0.27083482  0.22951136  0.53688695    -0.40800
C2549       C  0.27123734  0.21912564  0.52998218     0.32400
C2550       C  0.26591808  0.21880487  0.51880258     0.14100
F2551       F  0.25419392  0.24905763  0.51693498    -0.13200
F2552       F  0.27649170  0.20914447  0.53415405    -0.13700
F2553       F  0.26462351  0.24984709  0.53851327    -0.16000
F2554       F  0.26623810  0.20859558  0.51245797    -0.14600
F2555       F  0.27260167  0.22378028  0.49303185    -0.14600
F2556       F  0.22450575  0.23176065  0.49001145    -0.16000
C2557       C  0.53088759  0.41480119  0.51009691     0.14100
C2558       C  0.51875475  0.41742442  0.51097292     0.01000
C2559       C  0.51123518  0.40937074  0.51672935     0.16000
C2560       C  0.51577926  0.39891662  0.52162466     0.25400
C2561       C  0.52797406  0.39635875  0.52093228    -0.40900
C2562       C  0.53545880  0.40437827  0.51502580     0.32500
C2563       C  0.51394230  0.42855876  0.50590055     0.01100
F2564       F  0.49944816  0.41161091  0.51754931    -0.13200
F2565       F  0.54718585  0.40203571  0.51380387    -0.13700
C2566       C  0.51490309  0.43086800  0.49372380     0.16000
C2567       C  0.51029093  0.44133417  0.48891470     0.25400
C2568       C  0.50457432  0.44968212  0.49620026    -0.40800
C2569       C  0.50368591  0.44737150  0.50841477     0.32400
C2570       C  0.50834128  0.43692036  0.51321036     0.14100
F2571       F  0.52006345  0.42282707  0.48643362    -0.13200
F2572       F  0.49862221  0.45538332  0.51579875    -0.13700
F2573       F  0.51106919  0.44308653  0.47706002    -0.16000
F2574       F  0.50758682  0.43505979  0.52505586    -0.14600
F2575       F  0.53836002  0.42245625  0.50463577    -0.14600
F2576       F  0.50827612  0.39150295  0.52736094    -0.16000
C2577       C  0.48025257  0.13409012  0.50566093     0.14100
C2578       C  0.49262514  0.13296358  0.50522927     0.01000
C2579       C  0.49972335  0.14223797  0.50944046     0.16000
C2580       C  0.49456111  0.15238658  0.51429721     0.25400
C2581       C  0.48211907  0.15349359  0.51500828    -0.40900
C2582       C  0.47503309  0.14425403  0.51049305     0.32500
C2583       C  0.49816349  0.12191119  0.50087555     0.01100
F2584       F  0.51171170  0.14141065  0.50892565    -0.13200
F2585       F  0.46304399  0.14506454  0.51061580    -0.13700
C2586       C  0.49705182  0.11852671  0.48898220     0.16000
C2587       C  0.50230812  0.10804465  0.48493841     0.25400
C2588       C  0.50869437  0.10067413  0.49277678    -0.40800
C2589       C  0.50973724  0.10413573  0.50472229     0.32400
C2590       C  0.50458046  0.11467524  0.50869029     0.14100
F2591       F  0.49105512  0.12550810  0.48123151    -0.13200
F2592       F  0.51539021  0.09715705  0.51271367    -0.13700
F2593       F  0.50138374  0.10531993  0.47327822    -0.16000
F2594       F  0.50561980  0.11770798  0.52027414    -0.14600
F2595       F  0.47322087  0.12519410  0.50166349    -0.14600
F2596       F  0.50183392  0.16087213  0.51870923    -0.16000
C2597       C  0.37330057  0.22015313  0.58180993     0.14100
C2598       C  0.37595978  0.20826937  0.57907132     0.01000
C2599       C  0.36682981  0.19980624  0.57951986     0.16000
C2600       C  0.35518822  0.20325661  0.58198754     0.25400
C2601       C  0.35250079  0.21517625  0.58437845    -0.40900
C2602       C  0.36170717  0.22353858  0.58459400     0.32500
C2603       C  0.38807150  0.20485725  0.57515597     0.01100
F2604       F  0.36917196  0.18818939  0.57747416    -0.13200
F2605       F  0.35937027  0.23513728  0.58673845    -0.13700
C2606       C  0.39807090  0.20805942  0.58186882     0.16000
C2607       C  0.40948017  0.20570704  0.57767079     0.25400
C2608       C  0.41114093  0.19987587  0.56678490    -0.40800
C2609       C  0.40115503  0.19624983  0.56028866     0.32400
C2610       C  0.38973811  0.19882545  0.56436860     0.14100
F2611       F  0.39679926  0.21350235  0.59250645    -0.13200
F2612       F  0.40242212  0.19085089  0.54963361    -0.13700
F2613       F  0.41892714  0.20911402  0.58429666    -0.16000
F2614       F  0.38031875  0.19593026  0.55746625    -0.14600
F2615       F  0.38179946  0.22862742  0.58117098    -0.14600
F2616       F  0.34651241  0.19493720  0.58202613    -0.16000
C2617       C  0.49583255  0.26514240  0.55244304     0.14100
C2618       C  0.50383363  0.26788277  0.54337255     0.01000
C2619       C  0.50562138  0.25973254  0.53416993     0.16000
C2620       C  0.49942228  0.24902049  0.53399797     0.25400
C2621       C  0.49150798  0.24613890  0.54320923    -0.40900
C2622       C  0.48988764  0.25433429  0.55248858     0.32500
C2623       C  0.51029816  0.27924858  0.54365614     0.01100
F2624       F  0.51347873  0.26208731  0.52540088    -0.13200
F2625       F  0.48277378  0.25187728  0.56182615    -0.13700
C2626       C  0.51700245  0.28232654  0.55366969     0.16000
C2627       C  0.52241673  0.29339824  0.55440848     0.25400
C2628       C  0.52141507  0.30154832  0.54502565    -0.40800
C2629       C  0.51494680  0.29831972  0.53485716     0.32400
C2630       C  0.50939062  0.28728118  0.53420939     0.14100
F2631       F  0.51826917  0.27458904  0.56278889    -0.13200
F2632       F  0.51414906  0.30573206  0.52543676    -0.13700
F2633       F  0.52830576  0.29624100  0.56449762    -0.16000
F2634       F  0.50289191  0.28454873  0.52446222    -0.14600
F2635       F  0.49368415  0.27302154  0.56126607    -0.14600
F2636       F  0.50102481  0.24165995  0.52464996    -0.16000
C2637       C  0.00157642  0.41507057  0.48449117     0.14100
C2638       C  0.99501829  0.42349504  0.49083000     0.01000
C2639       C  0.98274724  0.42192750  0.49215505     0.16000
C2640       C  0.97711228  0.41201756  0.48724900     0.25400
C2641       C  0.98371242  0.40345244  0.48104971    -0.40900
C2642       C  0.99599657  0.40512859  0.47967545     0.32500
C2643       C  0.00101618  0.43388655  0.49609597     0.01100
F2644       F  0.97623393  0.43002331  0.49819756    -0.13200
F2645       F  0.00261852  0.39721196  0.47352098    -0.13700
C2646       C  0.00635692  0.44240284  0.48880480     0.16000
C2647       C  0.01194069  0.45229258  0.49376267     0.25400
C2648       C  0.01230063  0.45381749  0.50613743    -0.40800
C2649       C  0.00712109  0.44513464  0.51341790     0.32400
C2650       C  0.00151632  0.43527180  0.50843094     0.14100
F2651       F  0.00592012  0.44126077  0.47684988    -0.13200
F2652       F  0.00774949  0.44601255  0.52538187    -0.13700
F2653       F  0.01660660  0.46056231  0.48641249    -0.16000
F2654       F  0.99675644  0.42693604  0.51565135    -0.14600
F2655       F  0.01345431  0.41636817  0.48316398    -0.14600
F2656       F  0.96530290  0.41059637  0.48895371    -0.16000
C2657       C  0.02320552  0.13566370  0.49975934     0.14100
C2658       C  0.01101428  0.13357955  0.49843488     0.01000
C2659       C  0.00404483  0.14187306  0.49230392     0.16000
C2660       C  0.00917031  0.15217030  0.48769424     0.25400
C2661       C  0.02138203  0.15434676  0.48912670    -0.40900
C2662       C  0.02834667  0.14593498  0.49516894     0.32500
C2663       C  0.00561488  0.12282098  0.50363020     0.01100
F2664       F  0.99222028  0.14011062  0.49098989    -0.13200
F2665       F  0.04007283  0.14780798  0.49703646    -0.13700
C2666       C  0.00635425  0.12078042  0.51586750     0.16000
C2667       C  0.00173680  0.11041097  0.52078604     0.25400
C2668       C  0.99628333  0.10184084  0.51354788    -0.40800
C2669       C  0.99536027  0.10401291  0.50129272     0.32400
C2670       C  0.99998092  0.11441692  0.49639398     0.14100
F2671       F  0.01144836  0.12893390  0.52309317    -0.13200
F2672       F  0.99039906  0.09588895  0.49395200    -0.13700
F2673       F  0.00236055  0.10892645  0.53268815    -0.16000
F2674       F  0.99928699  0.11611859  0.48451761    -0.14600
F2675       F  0.03015925  0.12770166  0.50551021    -0.14600
F2676       F  0.00219361  0.15990713  0.48167832    -0.16000
C2677       C  0.11636262  0.21618229  0.45131128     0.14100
C2678       C  0.12228607  0.20609320  0.44718700     0.01000
C2679       C  0.11613271  0.19534769  0.44631151     0.16000
C2680       C  0.10422089  0.19465841  0.44971481     0.25400
C2681       C  0.09826887  0.20472905  0.45417828    -0.40900
C2682       C  0.10454791  0.21552893  0.45484740     0.32500
C2683       C  0.13506604  0.20679996  0.44447455     0.01100
F2684       F  0.12175865  0.18544512  0.44245518    -0.13200
F2685       F  0.09951624  0.22545344  0.45935372    -0.13700
C2686       C  0.14309624  0.20953936  0.45354946     0.16000
C2687       C  0.15507278  0.21119742  0.45104754     0.25400
C2688       C  0.15930463  0.21006773  0.43937018    -0.40800
C2689       C  0.15126183  0.20708716  0.43030311     0.32400
C2690       C  0.13922637  0.20544373  0.43285102     0.14100
F2691       F  0.13926899  0.21077842  0.46486968    -0.13200
F2692       F  0.15504970  0.20567088  0.41900075    -0.13700
F2693       F  0.16238125  0.21444198  0.46002744    -0.16000
F2694       F  0.13157790  0.20285879  0.42393567    -0.14600
F2695       F  0.12212595  0.22671092  0.45206613    -0.14600
F2696       F  0.09857038  0.18412928  0.44852395    -0.16000
C2697       C  0.00394081  0.29393346  0.47093237     0.14100
C2698       C  0.99840430  0.28456199  0.47695588     0.01000
C2699       C  0.98717629  0.28635626  0.48197208     0.16000
C2700       C  0.98152838  0.29732239  0.48090002     0.25400
C2701       C  0.98705843  0.30670245  0.47486034    -0.40900
C2702       C  0.99834717  0.30493544  0.46994657     0.32500
C2703       C  0.00431845  0.27289756  0.47782747     0.01100
F2704       F  0.98174894  0.27752570  0.48804478    -0.13200
F2705       F  0.00375927  0.31368806  0.46375234    -0.13700
C2706       C  0.01562582  0.27197416  0.48295461     0.16000
C2707       C  0.02161033  0.26113734  0.48300897     0.25400
C2708       C  0.01631475  0.25100660  0.47807329    -0.40800
C2709       C  0.00481152  0.25183236  0.47334443     0.32400
C2710       C  0.99888920  0.26271468  0.47315655     0.14100
F2711       F  0.02086012  0.28159451  0.48792300    -0.13200
F2712       F  0.99953895  0.24225113  0.46834899    -0.13700
F2713       F  0.03253371  0.26051524  0.48801524    -0.16000
F2714       F  0.98805030  0.26341180  0.46797192    -0.14600
F2715       F  0.01462707  0.29230760  0.46568468    -0.14600
F2716       F  0.97075344  0.29883984  0.48599372    -0.16000
C2717       C  0.77303186  0.29213814  0.35797210     0.14100
C2718       C  0.76522443  0.28249976  0.35850711     0.01000
C2719       C  0.76253528  0.27746609  0.36952428     0.16000
C2720       C  0.76756690  0.28202920  0.37990322     0.25400
C2721       C  0.77530613  0.29182134  0.37945278    -0.40900
C2722       C  0.77798963  0.29680572  0.36833072     0.32500
C2723       C  0.75996587  0.27766741  0.34752402     0.01100
F2724       F  0.75520833  0.26796239  0.37019249    -0.13200
F2725       F  0.78513892  0.30641826  0.36744922    -0.13700
C2726       C  0.76704168  0.27143246  0.33946645     0.16000
C2727       C  0.76218327  0.26705340  0.32894461     0.25400
C2728       C  0.75009872  0.26882557  0.32626881    -0.40800
C2729       C  0.74303352  0.27512816  0.33440274     0.32400
C2730       C  0.74793524  0.27946989  0.34494763     0.14100
F2731       F  0.77868783  0.26955079  0.34183073    -0.13200
F2732       F  0.73132085  0.27687631  0.33232282    -0.13700
F2733       F  0.76944021  0.26138369  0.32124077    -0.16000
F2734       F  0.74096864  0.28555865  0.35261255    -0.14600
F2735       F  0.77569297  0.29715869  0.34738947    -0.14600
F2736       F  0.76513396  0.27659647  0.39032780    -0.16000
C2737       C  0.87090405  0.33428131  0.42342160     0.14100
C2738       C  0.87289381  0.34288859  0.43217411     0.01000
C2739       C  0.86323308  0.34804333  0.43798911     0.16000
C2740       C  0.85175034  0.34414812  0.43564224     0.25400
C2741       C  0.84973610  0.33498117  0.42744485    -0.40900
C2742       C  0.85936251  0.33036580  0.42102242     0.32500
C2743       C  0.88495602  0.34529667  0.43655790     0.01100
F2744       F  0.86500733  0.35647523  0.44637479    -0.13200
F2745       F  0.85772621  0.32146105  0.41311689    -0.13700
C2746       C  0.89267746  0.35287479  0.43046519     0.16000
C2747       C  0.90390558  0.35541263  0.43515872     0.25400
C2748       C  0.90754515  0.35024503  0.44589789    -0.40800
C2749       C  0.89976236  0.34262632  0.45191665     0.32400
C2750       C  0.88855773  0.34022781  0.44730646     0.14100
F2751       F  0.88931252  0.35782527  0.42004249    -0.13200
F2752       F  0.90291853  0.33766021  0.46240499    -0.13700
F2753       F  0.91135052  0.36257487  0.42904268    -0.16000
F2754       F  0.88116991  0.33291323  0.45333191    -0.14600
F2755       F  0.88018609  0.32914266  0.41778092    -0.14600
F2756       F  0.84260941  0.34914312  0.44163179    -0.16000
C2757       C  0.74514550  0.27698350  0.66840240     0.14100
C2758       C  0.75226599  0.28284715  0.66009050     0.01000
C2759       C  0.76443530  0.28411838  0.66235175     0.16000
C2760       C  0.76940551  0.27966690  0.67280881     0.25400
C2761       C  0.76229142  0.27377995  0.68117763    -0.40900
C2762       C  0.75009999  0.27245911  0.67882759     0.32500
C2763       C  0.74697445  0.28768909  0.64909569     0.01100
F2764       F  0.77148895  0.28980453  0.65447068    -0.13200
F2765       F  0.74287871  0.26705113  0.68674402    -0.13700
C2766       C  0.73836040  0.29665033  0.64966901     0.16000
C2767       C  0.73336004  0.30126137  0.63930408     0.25400
C2768       C  0.73687953  0.29697694  0.62814778    -0.40800
C2769       C  0.74548753  0.28794405  0.62761069     0.32400
C2770       C  0.75049302  0.28336796  0.63799273     0.14100
F2771       F  0.73499157  0.30113446  0.66029071    -0.13200
F2772       F  0.74883359  0.28327456  0.61706446    -0.13700
F2773       F  0.72537331  0.31020443  0.64019965    -0.16000
F2774       F  0.75862470  0.27453579  0.63722504    -0.14600
F2775       F  0.73338187  0.27553456  0.66634920    -0.14600
F2776       F  0.78123900  0.28085537  0.67456938    -0.16000
C2777       C  0.61559350  0.33984349  0.58037894     0.14100
C2778       C  0.62459207  0.34491037  0.57350711     0.01000
C2779       C  0.62157622  0.35301321  0.56456601     0.16000
C2780       C  0.60969159  0.35552768  0.56207819     0.25400
C2781       C  0.60059762  0.34990760  0.56847952    -0.40900
C2782       C  0.60370076  0.34231447  0.57790125     0.32500
C2783       C  0.63699840  0.34090558  0.57488962     0.01100
F2784       F  0.63017343  0.35819356  0.55797370    -0.13200
F2785       F  0.59522141  0.33710303  0.58461691    -0.13700
C2786       C  0.64240422  0.33451109  0.56572416     0.16000
C2787       C  0.65406767  0.33053271  0.56687520     0.25400
C2788       C  0.66062218  0.33294405  0.57722340    -0.40800
C2789       C  0.65510866  0.33922606  0.58648834     0.32400
C2790       C  0.64337760  0.34314576  0.58532739     0.14100
F2791       F  0.63625809  0.33189938  0.55571566    -0.13200
F2792       F  0.66115854  0.34191823  0.59652106    -0.13700
F2793       F  0.65879430  0.32400960  0.55796744    -0.16000
F2794       F  0.63831355  0.34933647  0.59429022    -0.14600
F2795       F  0.61830715  0.33202494  0.58910320    -0.14600
F2796       F  0.60714526  0.36286779  0.55291282    -0.16000
C2797       C  0.76079556  0.31764247  0.51984482     0.14100
C2798       C  0.75607921  0.31024599  0.51098694     0.01000
C2799       C  0.74573907  0.30375228  0.51334663     0.16000
C2800       C  0.73995213  0.30496681  0.52419635     0.25400
C2801       C  0.74450101  0.31256303  0.53292902    -0.40900
C2802       C  0.75508647  0.31871641  0.53078555     0.32500
C2803       C  0.76171332  0.30950942  0.49917670     0.01100
F2804       F  0.74128078  0.29618440  0.50513428    -0.13200
F2805       F  0.75959143  0.32616545  0.53908194    -0.13700
C2806       C  0.77350959  0.30574174  0.49803183     0.16000
C2807       C  0.77880561  0.30513792  0.48686750     0.25400
C2808       C  0.77237797  0.30825155  0.47663095    -0.40800
C2809       C  0.76051972  0.31187859  0.47778000     0.32400
C2810       C  0.75525982  0.31255839  0.48896130     0.14100
F2811       F  0.77984920  0.30247872  0.50772303    -0.13200
F2812       F  0.75416427  0.31526551  0.46814771    -0.13700
F2813       F  0.79016465  0.30127530  0.48605417    -0.16000
F2814       F  0.74394491  0.31653677  0.48986108    -0.14600
F2815       F  0.77067754  0.32414787  0.51773963    -0.14600
F2816       F  0.72998199  0.29858348  0.52625585    -0.16000
C2817       C  0.48643872  0.00613119  0.39586591     0.14100
C2818       C  0.49602362  0.01403959  0.39551340     0.01000
C2819       C  0.50068825  0.01737390  0.38448551     0.16000
C2820       C  0.49581944  0.01290644  0.37397682     0.25400
C2821       C  0.48616116  0.00501314  0.37429813    -0.40900
C2822       C  0.48155573  0.00165714  0.38538550     0.32500
C2823       C  0.50100499  0.01894950  0.40664831     0.01100
F2824       F  0.51009077  0.02484055  0.38391058    -0.13200
F2825       F  0.47201048  0.99440141  0.38612081    -0.13700
C2826       C  0.50591538  0.01141830  0.41526130     0.16000
C2827       C  0.51044421  0.01604885  0.42584899     0.25400
C2828       C  0.51012913  0.02833195  0.42804600    -0.40800
C2829       C  0.50523229  0.03585099  0.41934428     0.32400
C2830       C  0.50071547  0.03119615  0.40878157     0.14100
F2831       F  0.50639519  0.99955309  0.41337050    -0.13200
F2832       F  0.50503211  0.04776868  0.42088732    -0.13700
F2833       F  0.51482671  0.00844709  0.43406689    -0.16000
F2834       F  0.49586820  0.03865838  0.40068471    -0.14600
F2835       F  0.48156449  0.00300887  0.40638563    -0.14600
F2836       F  0.50075872  0.01609684  0.36351276    -0.16000
C2837       C  0.49404993  0.03167324  0.08927581     0.14100
C2838       C  0.50216638  0.03684678  0.09717653     0.01000
C2839       C  0.51428813  0.03667938  0.09440058     0.16000
C2840       C  0.51822767  0.03144815  0.08387773     0.25400
C2841       C  0.51010277  0.02626354  0.07594582    -0.40900
C2842       C  0.49797241  0.02641492  0.07877024     0.32500
C2843       C  0.49793860  0.04230767  0.10834184     0.01100
F2844       F  0.52234041  0.04133368  0.10202974    -0.13200
F2845       F  0.48985374  0.02179373  0.07119566    -0.13700
C2846       C  0.49205325  0.03539797  0.11680669     0.16000
C2847       C  0.48763357  0.04055444  0.12715606     0.25400
C2848       C  0.48906161  0.05277912  0.12931884    -0.40800
C2849       C  0.49510508  0.05966461  0.12084101     0.32400
C2850       C  0.49950059  0.05446389  0.11047047     0.14100
F2851       F  0.49061253  0.02358893  0.11505039    -0.13200
F2852       F  0.49697888  0.07139753  0.12263755    -0.13700
F2853       F  0.48162042  0.03358027  0.13484954    -0.16000
F2854       F  0.50510820  0.06134911  0.10238354    -0.14600
F2855       F  0.48226960  0.03191784  0.09165051    -0.14600
F2856       F  0.53003354  0.03110769  0.08165252    -0.16000
C2857       C  0.46920117  0.02891430  0.26600231     0.14100
C2858       C  0.45971342  0.02805657  0.25797159     0.01000
C2859       C  0.44942562  0.02197600  0.26141546     0.16000
C2860       C  0.44868864  0.01673288  0.27261350     0.25400
C2861       C  0.45828204  0.01735659  0.28059648    -0.40900
C2862       C  0.46852165  0.02359747  0.27717647     0.32500
C2863       C  0.46051102  0.03361397  0.24607564     0.01100
F2864       F  0.44013626  0.02092531  0.25383707    -0.13200
F2865       F  0.47807324  0.02424637  0.28445262    -0.13700
C2866       C  0.46977567  0.03064840  0.23830463     0.16000
C2867       C  0.47075153  0.03622210  0.22726672     0.25400
C2868       C  0.46245731  0.04486397  0.22378317    -0.40800
C2869       C  0.45301031  0.04757318  0.23145632     0.32400
C2870       C  0.45208386  0.04204875  0.24248848     0.14100
F2871       F  0.47790052  0.02233692  0.24141722    -0.13200
F2872       F  0.44455471  0.05551104  0.22825558    -0.13700
F2873       F  0.48007383  0.03347986  0.22021434    -0.16000
F2874       F  0.44309199  0.04518339  0.24981178    -0.14600
F2875       F  0.47913339  0.03499580  0.26304765    -0.14600
F2876       F  0.43848348  0.01118876  0.27567788    -0.16000
C2877       C  0.67019148  0.28647371  0.24852349     0.14100
C2878       C  0.66078676  0.27871980  0.24595068     0.01000
C2879       C  0.66236369  0.26650444  0.24779198     0.16000
C2880       C  0.67309805  0.26212136  0.25221318     0.25400
C2881       C  0.68243721  0.26988703  0.25499992    -0.40900
C2882       C  0.68089473  0.28210426  0.25308391     0.32500
C2883       C  0.64921344  0.28335617  0.24169397     0.01100
F2884       F  0.65347908  0.25880050  0.24528212    -0.13200
F2885       F  0.68982621  0.28979903  0.25544042    -0.13700
C2886       C  0.64840284  0.28975767  0.23105305     0.16000
C2887       C  0.63744426  0.29410114  0.22710777     0.25400
C2888       C  0.62707060  0.29209215  0.23372272    -0.40800
C2889       C  0.62792876  0.28567013  0.24437511     0.32400
C2890       C  0.63888105  0.28137505  0.24831455     0.14100
F2891       F  0.65820370  0.29161097  0.22436518    -0.13200
F2892       F  0.61824916  0.28392394  0.25125498    -0.13700
F2893       F  0.63695163  0.30001845  0.21666222    -0.16000
F2894       F  0.63945328  0.27551966  0.25879480    -0.14600
F2895       F  0.66891182  0.29831556  0.24687065    -0.14600
F2896       F  0.67419956  0.25030746  0.25416097    -0.16000
C2897       C  0.35450589  0.25077814  0.24341579     0.14100
C2898       C  0.35125583  0.26277752  0.24338850     0.01000
C2899       C  0.35876057  0.27110364  0.23802404     0.16000
C2900       C  0.36949956  0.26751897  0.23296869     0.25400
C2901       C  0.37281876  0.25550264  0.23302582    -0.40900
C2902       C  0.36514896  0.24714686  0.23820516     0.32500
C2903       C  0.34015599  0.26667481  0.24916258     0.01100
F2904       F  0.35575260  0.28274706  0.23786023    -0.13200
F2905       F  0.36812440  0.23550274  0.23859225    -0.13700
C2906       C  0.33910615  0.26635110  0.26153672     0.16000
C2907       C  0.32881990  0.27052712  0.26706185     0.25400
C2908       C  0.31936496  0.27506486  0.26027366    -0.40800
C2909       C  0.32037807  0.27512796  0.24784167     0.32400
C2910       C  0.33069142  0.27100110  0.24235559     0.14100
F2911       F  0.34822074  0.26232211  0.26828496    -0.13200
F2912       F  0.31130181  0.27898820  0.24095194    -0.13700
F2913       F  0.32835637  0.27059357  0.27906135    -0.16000
F2914       F  0.33142197  0.27114417  0.23036585    -0.14600
F2915       F  0.34733877  0.24257688  0.24848269    -0.14600
F2916       F  0.37653831  0.27577030  0.22781182    -0.16000
C2917       C  0.44644968  0.14608087  0.19164222     0.14100
C2918       C  0.43918661  0.15096095  0.18282279     0.01000
C2919       C  0.43728150  0.14467865  0.17227736     0.16000
C2920       C  0.44245535  0.13351608  0.17063593     0.25400
C2921       C  0.44961663  0.12851650  0.17954412    -0.40900
C2922       C  0.45163788  0.13496759  0.19002628     0.32500
C2923       C  0.43425278  0.16294510  0.18444867     0.01100
F2924       F  0.43029399  0.14931598  0.16365403    -0.13200
F2925       F  0.45887407  0.13064569  0.19861504    -0.13700
C2926       C  0.43974170  0.17259855  0.17895231     0.16000
C2927       C  0.43626235  0.18413846  0.18169061     0.25400
C2928       C  0.42722413  0.18622225  0.19000500    -0.40800
C2929       C  0.42122194  0.17649471  0.19496668     0.32400
C2930       C  0.42479932  0.16491702  0.19226704     0.14100
F2931       F  0.44889994  0.17084536  0.17138335    -0.13200
F2932       F  0.41246374  0.17815906  0.20300766    -0.13700
F2933       F  0.44193827  0.19330717  0.17639682    -0.16000
F2934       F  0.41935284  0.15563527  0.19760686    -0.14600
F2935       F  0.44869010  0.15221239  0.20174172    -0.14600
F2936       F  0.44012185  0.12744382  0.16053428    -0.16000
C2937       C  0.48412131  0.28000991  0.22685651     0.14100
C2938       C  0.49405496  0.27275994  0.22901756     0.01000
C2939       C  0.49242450  0.26043560  0.22975713     0.16000
C2940       C  0.48120177  0.25544523  0.22803070     0.25400
C2941       C  0.47129447  0.26267252  0.22563525    -0.40900
C2942       C  0.47285262  0.27502786  0.22526078     0.32500
C2943       C  0.50612997  0.27801277  0.23009095     0.01100
F2944       F  0.50171440  0.25319773  0.23223587    -0.13200
F2945       F  0.46358637  0.28227842  0.22276367    -0.13700
C2946       C  0.50839309  0.28722799  0.23818047     0.16000
C2947       C  0.51953861  0.29268351  0.23858993     0.25400
C2948       C  0.52872226  0.28884100  0.23113429    -0.40800
C2949       C  0.52662610  0.27934104  0.22337651     0.32400
C2950       C  0.51540980  0.27406913  0.22275690     0.14100
F2951       F  0.49981167  0.29091693  0.24573179    -0.13200
F2952       F  0.53526477  0.27557340  0.21593017    -0.13700
F2953       F  0.52140849  0.30165846  0.24636628    -0.16000
F2954       F  0.51348496  0.26543517  0.21461541    -0.14600
F2955       F  0.48540058  0.29191611  0.22579713    -0.14600
F2956       F  0.48002449  0.24351144  0.22888571    -0.16000
C2957       C  0.36916543  0.79807473  0.25891650     0.14100
C2958       C  0.36719984  0.78583797  0.25996521     0.01000
C2959       C  0.37539053  0.77887083  0.26623593     0.16000
C2960       C  0.38543946  0.78405547  0.27132884     0.25400
C2961       C  0.38741622  0.79633110  0.27031289    -0.40900
C2962       C  0.37915073  0.80329064  0.26408247     0.32500
C2963       C  0.35643799  0.78044558  0.25474879     0.01100
F2964       F  0.37368646  0.76702062  0.26735105    -0.13200
F2965       F  0.38086863  0.81510832  0.26272508    -0.13700
C2966       C  0.35446319  0.78087491  0.24247784     0.16000
C2967       C  0.34395479  0.77640606  0.23763672     0.25400
C2968       C  0.33525683  0.77138538  0.24499658    -0.40800
C2969       C  0.33738849  0.77072933  0.25726157     0.32400
C2970       C  0.34788131  0.77523134  0.26208319     0.14100
F2971       F  0.36276832  0.78556638  0.23518248    -0.13200
F2972       F  0.32909133  0.76622996  0.26467738    -0.13700
F2973       F  0.34238680  0.77680418  0.22572977    -0.16000
F2974       F  0.34950950  0.77488978  0.27398638    -0.14600
F2975       F  0.36129157  0.80500819  0.25302132    -0.14600
F2976       F  0.39305709  0.77710457  0.27752778    -0.16000
C2977       C  0.44712931  0.88932663  0.31349177     0.14100
C2978       C  0.43740567  0.89610682  0.31728020     0.01000
C2979       C  0.42639765  0.89051232  0.31886880     0.16000
C2980       C  0.42512105  0.87837567  0.31658943     0.25400
C2981       C  0.43483119  0.87161390  0.31267497    -0.40900
C2982       C  0.44586019  0.87723889  0.31116538     0.32500
C2983       C  0.43878936  0.90903360  0.31929856     0.01100
F2984       F  0.41681399  0.89685225  0.32239460    -0.13200
F2985       F  0.45537402  0.87116632  0.30703761    -0.13700
C2986       C  0.44306052  0.91633118  0.31018088     0.16000
C2987       C  0.44494373  0.92840461  0.31213883     0.25400
C2988       C  0.44256004  0.93347044  0.32326432    -0.40800
C2989       C  0.43813803  0.92621251  0.33235709     0.32400
C2990       C  0.43623231  0.91410045  0.33037917     0.14100
F2991       F  0.44543175  0.91174452  0.29933095    -0.13200
F2992       F  0.43551184  0.93087296  0.34311044    -0.13700
F2993       F  0.44953824  0.93503526  0.30324491    -0.16000
F2994       F  0.43216518  0.90726204  0.33937422    -0.14600
F2995       F  0.45792189  0.89442679  0.31206691    -0.14600
F2996       F  0.41442791  0.87320760  0.31840005    -0.16000
C2997       C  0.64691632  0.77408099  0.27129261     0.14100
C2998       C  0.65507103  0.76786259  0.26432165     0.01000
C2999       C  0.65301523  0.75589597  0.26164408     0.16000
C3000       C  0.64280569  0.75023578  0.26577978     0.25400
C3001       C  0.63444855  0.75654443  0.27252261    -0.40900
C3002       C  0.63667068  0.76849414  0.27533562     0.32500
C3003       C  0.66554853  0.77399898  0.25956826     0.01100
F3004       F  0.66088288  0.74973858  0.25496726    -0.13200
F3005       F  0.62900121  0.77475663  0.28213963    -0.13700
C3006       C  0.67470263  0.77763202  0.26715694     0.16000
C3007       C  0.68457953  0.78355156  0.26263088     0.25400
C3008       C  0.68541861  0.78590883  0.25043436    -0.40800
C3009       C  0.67614072  0.78237899  0.24288358     0.32400
C3010       C  0.66628469  0.77646714  0.24742924     0.14100
F3011       F  0.67415389  0.77523561  0.27891593    -0.13200
F3012       F  0.67645898  0.78492476  0.23114711    -0.13700
F3013       F  0.69349554  0.78659209  0.27011012    -0.16000
F3014       F  0.65733617  0.77332597  0.24002359    -0.14600
F3015       F  0.64876612  0.78566054  0.27395788    -0.14600
F3016       F  0.64088531  0.73874972  0.26279986    -0.16000
C3017       C  0.51770087  0.76601856  0.28294519     0.14100
C3018       C  0.51747426  0.77808547  0.28587592     0.01000
C3019       C  0.52809033  0.78391694  0.28869683     0.16000
C3020       C  0.53878443  0.77765786  0.28889905     0.25400
C3021       C  0.53895627  0.76544589  0.28640106    -0.40900
C3022       C  0.52834308  0.75973346  0.28323466     0.32500
C3023       C  0.50601183  0.78424661  0.28694686     0.01100
F3024       F  0.52803637  0.79561509  0.29148545    -0.13200
F3025       F  0.52825261  0.74804903  0.28040744    -0.13700
C3026       C  0.50208257  0.78793952  0.29812420     0.16000
C3027       C  0.49082936  0.79287211  0.29944488     0.25400
C3028       C  0.48330651  0.79416318  0.28959463    -0.40800
C3029       C  0.48731207  0.79059900  0.27836089     0.32400
C3030       C  0.49860958  0.78568621  0.27705175     0.14100
F3031       F  0.50898873  0.78632612  0.30784480    -0.13200
F3032       F  0.48039927  0.79207927  0.26862832    -0.13700
F3033       F  0.48710179  0.79590361  0.31045094    -0.16000
F3034       F  0.50235182  0.78233815  0.26614064    -0.14600
F3035       F  0.50751333  0.76021275  0.28027003    -0.14600
F3036       F  0.54884039  0.78340963  0.29211995    -0.16000
C3037       C  0.50366657  0.51146680  0.09423978     0.14100
C3038       C  0.50786417  0.51862124  0.10350948     0.01000
C3039       C  0.50775959  0.53099183  0.10215068     0.16000
C3040       C  0.50365639  0.53612485  0.09162474     0.25400
C3041       C  0.49945903  0.52896826  0.08231495    -0.40900
C3042       C  0.49946949  0.51657843  0.08375825     0.32500
C3043       C  0.51256425  0.51313386  0.11448040     0.01100
F3044       F  0.51179217  0.53809798  0.11097114    -0.13200
F3045       F  0.49571097  0.50936654  0.07490480    -0.13700
C3046       C  0.52256091  0.50574525  0.11400285     0.16000
C3047       C  0.52701668  0.50046572  0.12429609     0.25400
C3048       C  0.52151859  0.50242830  0.13530548    -0.40800
C3049       C  0.51147739  0.50985679  0.13574797     0.32400
C3050       C  0.50707137  0.51517257  0.12543221     0.14100
F3051       F  0.52816616  0.50383621  0.10355599    -0.13200
F3052       F  0.50567467  0.51170870  0.14609108    -0.13700
F3053       F  0.53695023  0.49374255  0.12350312    -0.16000
F3054       F  0.49726260  0.52210700  0.12608603    -0.14600
F3055       F  0.50354997  0.49949719  0.09539207    -0.14600
F3056       F  0.50351150  0.54810762  0.09067380    -0.16000
C3057       C  0.57820515  0.41355854  0.19379129     0.14100
C3058       C  0.57149863  0.40424746  0.18905302     0.01000
C3059       C  0.56263935  0.40676170  0.18067693     0.16000
C3060       C  0.56000415  0.41852121  0.17763767     0.25400
C3061       C  0.56613977  0.42793892  0.18305399    -0.40900
C3062       C  0.57557963  0.42529992  0.19080448     0.32500
C3063       C  0.57277606  0.39214953  0.19393249     0.01100
F3064       F  0.55613472  0.39784200  0.17591532    -0.13200
F3065       F  0.58208947  0.43412187  0.19574401    -0.13700
C3066       C  0.56582057  0.38874330  0.20361976     0.16000
C3067       C  0.56686482  0.37737139  0.20843015     0.25400
C3068       C  0.57491599  0.36913822  0.20362237    -0.40800
C3069       C  0.58203017  0.37267098  0.19399199     0.32400
C3070       C  0.58094744  0.38408864  0.18919109     0.14100
F3071       F  0.55803901  0.39651705  0.20847487    -0.13200
F3072       F  0.58977663  0.36498515  0.18896686    -0.13700
F3073       F  0.56019525  0.37455226  0.21800077    -0.16000
F3074       F  0.58780462  0.38725618  0.17986300    -0.14600
F3075       F  0.58693499  0.41129289  0.20175720    -0.14600
F3076       F  0.55088879  0.42067321  0.17009071    -0.16000
C3077       C  0.51979550  0.53777948  0.39095369     0.14100
C3078       C  0.52528904  0.53972942  0.40192897     0.01000
C3079       C  0.53565562  0.54658896  0.40244929     0.16000
C3080       C  0.54057482  0.55125374  0.39206589     0.25400
C3081       C  0.53518389  0.54909806  0.38102693    -0.40900
C3082       C  0.52468390  0.54239604  0.38060519     0.32500
C3083       C  0.52030625  0.53420782  0.41269185     0.01100
F3084       F  0.54120036  0.54844583  0.41295761    -0.13200
F3085       F  0.51895915  0.54051586  0.37019934    -0.13700
C3086       C  0.51975625  0.52181879  0.41356400     0.16000
C3087       C  0.51438343  0.51645429  0.42330904     0.25400
C3088       C  0.50939458  0.52339536  0.43236604    -0.40800
C3089       C  0.51005335  0.53582682  0.43154039     0.32400
C3090       C  0.51553291  0.54118733  0.42179920     0.14100
F3091       F  0.52435541  0.51490517  0.40487651    -0.13200
F3092       F  0.50553114  0.54278845  0.44022287    -0.13700
F3093       F  0.51364337  0.50446063  0.42362013    -0.16000
F3094       F  0.51590484  0.55318526  0.42109335    -0.14600
F3095       F  0.50959991  0.53144088  0.39028537    -0.14600
F3096       F  0.55084088  0.55746723  0.39275826    -0.16000
C3097       C  0.57093596  0.64328598  0.33209080     0.14100
C3098       C  0.57714893  0.64629864  0.32179276     0.01000
C3099       C  0.58089134  0.63735061  0.31406235     0.16000
C3100       C  0.57808508  0.62552248  0.31637428     0.25400
C3101       C  0.57142374  0.62246647  0.32646282    -0.40900
C3102       C  0.56813502  0.63145432  0.33445909     0.32500
C3103       C  0.57875511  0.65882382  0.31851336     0.01100
F3104       F  0.58685852  0.64014090  0.30402247    -0.13200
F3105       F  0.56160949  0.62892696  0.34420470    -0.13700
C3106       C  0.58973549  0.66443571  0.31995690     0.16000
C3107       C  0.59123638  0.67621349  0.31635737     0.25400
C3108       C  0.58177759  0.68248886  0.31112325    -0.40800
C3109       C  0.57076354  0.67675069  0.30975177     0.32400
C3110       C  0.56928055  0.66506208  0.31347503     0.14100
F3111       F  0.59896968  0.65850234  0.32488704    -0.13200
F3112       F  0.56150834  0.68222957  0.30436768    -0.13700
F3113       F  0.60186311  0.68151259  0.31820793    -0.16000
F3114       F  0.55864010  0.65968768  0.31187320    -0.14600
F3115       F  0.56724136  0.65187250  0.33964252    -0.14600
F3116       F  0.58182512  0.61708572  0.30867823    -0.16000
C3117       C  0.53819680  0.53780349  0.26474546     0.14100
C3118       C  0.54368117  0.52667005  0.26372870     0.01000
C3119       C  0.54983213  0.52198918  0.27350970     0.16000
C3120       C  0.55050788  0.52836302  0.28410790     0.25400
C3121       C  0.54520785  0.53959529  0.28501941    -0.40900
C3122       C  0.53903824  0.54425025  0.27525871     0.32500
C3123       C  0.54307947  0.52005544  0.25241729     0.01100
F3124       F  0.55548867  0.51140538  0.27268382    -0.13200
F3125       F  0.53357108  0.55493907  0.27598739    -0.13700
C3126       C  0.54690728  0.52538531  0.24184399     0.16000
C3127       C  0.54611883  0.51927443  0.23111585     0.25400
C3128       C  0.54175114  0.50763993  0.23082138    -0.40800
C3129       C  0.53806306  0.50223571  0.24138862     0.32400
C3130       C  0.53859965  0.50844150  0.25209054     0.14100
F3131       F  0.55167604  0.53642156  0.24195522    -0.13200
F3132       F  0.53365390  0.49105258  0.24129185    -0.13700
F3133       F  0.55004355  0.52456216  0.22107436    -0.16000
F3134       F  0.53452432  0.50320049  0.26209872    -0.14600
F3135       F  0.53186900  0.54236930  0.25558739    -0.14600
F3136       F  0.55675226  0.52376833  0.29330771    -0.16000
C3137       C  0.27290295  0.38975585  0.77449367     0.14100
C3138       C  0.26297982  0.39029038  0.76696498     0.01000
C3139       C  0.25756649  0.40131341  0.76488271     0.16000
C3140       C  0.26213217  0.41164239  0.77003058     0.25400
C3141       C  0.27216450  0.41114949  0.77744073    -0.40900
C3142       C  0.27741312  0.40006630  0.77973481     0.32500
C3143       C  0.25832233  0.37937122  0.76125403     0.01100
F3144       F  0.24774371  0.40204887  0.75796805    -0.13200
F3145       F  0.28723581  0.39925161  0.78663180    -0.13700
C3146       C  0.25455688  0.36975271  0.76818066     0.16000
C3147       C  0.25025278  0.35942783  0.76283207     0.25400
C3148       C  0.24967901  0.35847082  0.75041919    -0.40800
C3149       C  0.25342806  0.36812076  0.74348104     0.32400
C3150       C  0.25768361  0.37847274  0.74885096     0.14100
F3151       F  0.25495395  0.37039686  0.78017077    -0.13200
F3152       F  0.25273915  0.36765589  0.73149474    -0.13700
F3153       F  0.24697665  0.35023345  0.76983090    -0.16000
F3154       F  0.26137156  0.38756754  0.74192027    -0.14600
F3155       F  0.27846856  0.37927425  0.77647134    -0.14600
F3156       F  0.25658613  0.42211033  0.76794819    -0.16000
C3157       C  0.25081018  0.68569098  0.74287874     0.14100
C3158       C  0.26313766  0.68410266  0.74371348     0.01000
C3159       C  0.26982764  0.69224765  0.75035633     0.16000
C3160       C  0.26428015  0.70163022  0.75626874     0.25400
C3161       C  0.25190877  0.70312350  0.75560137    -0.40900
C3162       C  0.24525561  0.69511520  0.74872217     0.32500
C3163       C  0.26894542  0.67372236  0.73803948     0.01100
F3164       F  0.28179074  0.69118770  0.75101482    -0.13200
F3165       F  0.23329312  0.69609034  0.74801728    -0.13700
C3166       C  0.26773313  0.67160338  0.72583366     0.16000
C3167       C  0.27294395  0.66160852  0.72061621     0.25400
C3168       C  0.27956910  0.65354233  0.72749198    -0.40800
C3169       C  0.28087892  0.65580542  0.73970453     0.32400
C3170       C  0.27557857  0.66572732  0.74490290     0.14100
F3171       F  0.26155090  0.67927505  0.71892744    -0.13200
F3172       F  0.28749484  0.64856624  0.74666215    -0.13700
F3173       F  0.27118763  0.65968878  0.70889067    -0.16000
F3174       F  0.27675236  0.66740623  0.75674713    -0.14600
F3175       F  0.24406848  0.67785671  0.73673158    -0.14600
F3176       F  0.27108350  0.70941035  0.76241194    -0.16000
C3177       C  0.31576288  0.53991155  0.73843484     0.14100
C3178       C  0.30670024  0.53714507  0.74646403     0.01000
C3179       C  0.29811116  0.54578026  0.74902778     0.16000
C3180       C  0.29843897  0.55689010  0.74351115     0.25400
C3181       C  0.30751625  0.55971989  0.73541125    -0.40900
C3182       C  0.31624847  0.55107137  0.73306517     0.32500
C3183       C  0.30625045  0.52527974  0.75217515     0.01100
F3184       F  0.28942443  0.54349667  0.75699785    -0.13200
F3185       F  0.32545375  0.55339584  0.72573362    -0.13700
C3186       C  0.31601633  0.52099803  0.75861073     0.16000
C3187       C  0.31563422  0.50984166  0.76398251     0.25400
C3188       C  0.30536861  0.50275963  0.76324094    -0.40800
C3189       C  0.29562320  0.50703324  0.75669255     0.32400
C3190       C  0.29609079  0.51814523  0.75118826     0.14100
F3191       F  0.32588755  0.52774062  0.75991110    -0.13200
F3192       F  0.28545754  0.50068252  0.75590706    -0.13700
F3193       F  0.32542709  0.50594863  0.76978620    -0.16000
F3194       F  0.28660135  0.52192154  0.74482356    -0.14600
F3195       F  0.32410064  0.53170879  0.73563329    -0.14600
F3196       F  0.28964154  0.56469986  0.74593584    -0.16000
C3197       C  0.11161102  0.54492409  0.47719016     0.14100
C3198       C  0.11157839  0.53577006  0.48560548     0.01000
C3199       C  0.12227045  0.53011079  0.48850708     0.16000
C3200       C  0.13286372  0.53364896  0.48321575     0.25400
C3201       C  0.13298215  0.54297269  0.47491868    -0.40900
C3202       C  0.12220614  0.54849665  0.47188377     0.32500
C3203       C  0.10040143  0.53201944  0.49130000     0.01100
F3204       F  0.12241626  0.52097856  0.49632752    -0.13200
F3205       F  0.12193354  0.55764722  0.46410526    -0.13700
C3206       C  0.09094721  0.52778834  0.48439981     0.16000
C3207       C  0.08059122  0.52374213  0.48979924     0.25400
C3208       C  0.07949619  0.52389755  0.50219084    -0.40800
C3209       C  0.08884329  0.52840046  0.50908801     0.32400
C3210       C  0.09923470  0.53238600  0.50368121     0.14100
F3211       F  0.09187030  0.52727804  0.47243338    -0.13200
F3212       F  0.08812215  0.52850576  0.52107835    -0.13700
F3213       F  0.07157143  0.51978172  0.48289517    -0.16000
F3214       F  0.10819185  0.53657729  0.51053491    -0.14600
F3215       F  0.10140268  0.55061929  0.47433460    -0.14600
F3216       F  0.14293852  0.52770144  0.48601389    -0.16000
C3217       C  0.39451187  0.53819080  0.50294546     0.14100
C3218       C  0.40311061  0.53346104  0.51058668     0.01000
C3219       C  0.40102898  0.53347007  0.52282719     0.16000
C3220       C  0.39052712  0.53822377  0.52739167     0.25400
C3221       C  0.38186618  0.54301067  0.51976669    -0.40900
C3222       C  0.38397140  0.54288596  0.50746760     0.32500
C3223       C  0.41422438  0.52845372  0.50576384     0.01100
F3224       F  0.40923387  0.52893521  0.53037120    -0.13200
F3225       F  0.37596974  0.54754955  0.49979102    -0.13700
C3226       C  0.42260237  0.53584614  0.50036128     0.16000
C3227       C  0.43307307  0.53111432  0.49570938     0.25400
C3228       C  0.43529102  0.51881881  0.49620540    -0.40800
C3229       C  0.42682410  0.51145267  0.50168195     0.32400
C3230       C  0.41644697  0.51625060  0.50646687     0.14100
F3231       F  0.42071568  0.54771013  0.49977448    -0.13200
F3232       F  0.42833892  0.49953963  0.50210310    -0.13700
F3233       F  0.44115034  0.53866070  0.49102927    -0.16000
F3234       F  0.40839895  0.50892811  0.51155548    -0.14600
F3235       F  0.39628540  0.53813445  0.49106428    -0.14600
F3236       F  0.38871435  0.53780985  0.53925118    -0.16000
C3237       C  0.33557982  0.59514379  0.60972019     0.14100
C3238       C  0.32514282  0.59213204  0.61579376     0.01000
C3239       C  0.31663250  0.58509808  0.61004405     0.16000
C3240       C  0.31851673  0.58108524  0.59850871     0.25400
C3241       C  0.32891491  0.58413762  0.59234878    -0.40900
C3242       C  0.33745920  0.59117475  0.59810106     0.32500
C3243       C  0.32331043  0.59572301  0.62831682     0.01100
F3244       F  0.30643102  0.58208757  0.61563066    -0.13200
F3245       F  0.34752904  0.59440715  0.59242029    -0.13700
C3246       C  0.32320605  0.60772187  0.63170517     0.16000
C3247       C  0.32126520  0.61091557  0.64357172     0.25400
C3248       C  0.31939049  0.60214224  0.65223998    -0.40800
C3249       C  0.31928099  0.59016346  0.64869936     0.32400
C3250       C  0.32134885  0.58701416  0.63694900     0.14100
F3251       F  0.32479315  0.61634375  0.62348836    -0.13200
F3252       F  0.31679514  0.58139814  0.65652010    -0.13700
F3253       F  0.32143860  0.62254983  0.64658653    -0.16000
F3254       F  0.32150250  0.57535248  0.63400748    -0.14600
F3255       F  0.34407162  0.60171366  0.61513450    -0.14600
F3256       F  0.31027590  0.57387966  0.59353322    -0.16000
C3257       C  0.26433521  0.54954960  0.51263574     0.14100
C3258       C  0.26311525  0.55276389  0.50067744     0.01000
C3259       C  0.27309558  0.55687890  0.49446900     0.16000
C3260       C  0.28408319  0.55775988  0.50011898     0.25400
C3261       C  0.28519784  0.55487524  0.51215635    -0.40900
C3262       C  0.27525384  0.55071588  0.51835709     0.32500
C3263       C  0.25144924  0.55196861  0.49469430     0.01100
F3264       F  0.27211765  0.56043732  0.48302995    -0.13200
F3265       F  0.27616455  0.54755683  0.52991570    -0.13700
C3266       C  0.24144438  0.55762695  0.49951283     0.16000
C3267       C  0.23056984  0.55726814  0.49358045     0.25400
C3268       C  0.22960241  0.55148652  0.48260939    -0.40800
C3269       C  0.23953711  0.54568652  0.47788669     0.32400
C3270       C  0.25032504  0.54580469  0.48394177     0.14100
F3271       F  0.24230823  0.56391679  0.50972020    -0.13200
F3272       F  0.23876351  0.53977933  0.46744837    -0.13700
F3273       F  0.22116220  0.56310524  0.49826054    -0.16000
F3274       F  0.25968608  0.53985344  0.47931175    -0.14600
F3275       F  0.25497770  0.54515438  0.51874858    -0.14600
F3276       F  0.29350171  0.56195035  0.49396052    -0.16000
C3277       C  0.24857897  0.39002026  0.25083747     0.14100
C3278       C  0.24155094  0.37981333  0.24969762     0.01000
C3279       C  0.23060483  0.38063082  0.24379980     0.16000
C3280       C  0.22676337  0.39146415  0.23911142     0.25400
C3281       C  0.23377964  0.40170339  0.24027944    -0.40900
C3282       C  0.24472277  0.40086328  0.24622602     0.32500
C3283       C  0.24564601  0.36836619  0.25473290     0.01100
F3284       F  0.22351696  0.37097414  0.24279293    -0.13200
F3285       F  0.25192410  0.41043339  0.24721753    -0.13700
C3286       C  0.24816111  0.36739634  0.26688331     0.16000
C3287       C  0.25227592  0.35670862  0.27163812     0.25400
C3288       C  0.25401225  0.34677757  0.26431821    -0.40800
C3289       C  0.25143089  0.34773349  0.25215901     0.32400
C3290       C  0.24725126  0.35841864  0.24742131     0.14100
F3291       F  0.24657283  0.37682060  0.27417415    -0.13200
F3292       F  0.25274246  0.33825958  0.24487928    -0.13700
F3293       F  0.25493595  0.35621094  0.28334667    -0.16000
F3294       F  0.24499117  0.35912122  0.23563602    -0.14600
F3295       F  0.25934444  0.38941887  0.25618393    -0.14600
F3296       F  0.21602310  0.39199780  0.23371616    -0.16000
C3297       C  0.24187828  0.66628779  0.25203288     0.14100
C3298       C  0.24660033  0.67529940  0.25914914     0.01000
C3299       C  0.24681949  0.67388223  0.27146780     0.16000
C3300       C  0.24252834  0.66349515  0.27665222     0.25400
C3301       C  0.23793237  0.65429815  0.26956904    -0.40900
C3302       C  0.23757187  0.65586218  0.25718129     0.32500
C3303       C  0.25169635  0.68605836  0.25377410     0.01100
F3304       F  0.25137175  0.68253343  0.27846963    -0.13200
F3305       F  0.23291931  0.64738945  0.25003499    -0.13700
C3306       C  0.24441041  0.69564694  0.25071630     0.16000
C3307       C  0.24936807  0.70609853  0.24626578     0.25400
C3308       C  0.26172482  0.70709882  0.24478859    -0.40800
C3309       C  0.26895942  0.69733475  0.24767405     0.32400
C3310       C  0.26397126  0.68692592  0.25214938     0.14100
F3311       F  0.23251615  0.69496808  0.25231005    -0.13200
F3312       F  0.28084605  0.69774596  0.24596074    -0.13700
F3313       F  0.24210402  0.71537660  0.24385778    -0.16000
F3314       F  0.27112502  0.67766126  0.25493756    -0.14600
F3315       F  0.24159642  0.66753741  0.24008553    -0.14600
F3316       F  0.24335782  0.66228434  0.28856996    -0.16000
C3317       C  0.18815089  0.59148184  0.35863001     0.14100
C3318       C  0.19311465  0.59764436  0.36818488     0.01000
C3319       C  0.20109628  0.60692119  0.36602415     0.16000
C3320       C  0.20455752  0.60958571  0.35441456     0.25400
C3321       C  0.20019743  0.60284998  0.34486433    -0.40900
C3322       C  0.19166457  0.59403360  0.34706874     0.32500
C3323       C  0.19150220  0.59293952  0.38024555     0.01100
F3324       F  0.20604069  0.61291544  0.37520024    -0.13200
F3325       F  0.18696631  0.58762174  0.33804766    -0.13700
C3326       C  0.19947774  0.58439283  0.38441554     0.16000
C3327       C  0.19759068  0.57881669  0.39525698     0.25400
C3328       C  0.18771564  0.58180035  0.40226582    -0.40800
C3329       C  0.17976214  0.59050143  0.39810125     0.32400
C3330       C  0.18163481  0.59599909  0.38712685     0.14100
F3331       F  0.20894467  0.58117407  0.37775018    -0.13200
F3332       F  0.17029432  0.59382631  0.40469524    -0.13700
F3333       F  0.20519853  0.57012388  0.39860809    -0.16000
F3334       F  0.17379629  0.60422217  0.38317037    -0.14600
F3335       F  0.18044138  0.58247003  0.36058352    -0.14600
F3336       F  0.21284727  0.61809461  0.35263110    -0.16000
C3337       C  0.23947375  0.53587282  0.26828043     0.14100
C3338       C  0.23494824  0.53423673  0.25680190     0.01000
C3339       C  0.23018698  0.54398727  0.25067764     0.16000
C3340       C  0.22976302  0.55514426  0.25602702     0.25400
C3341       C  0.23392638  0.55668363  0.26765306    -0.40900
C3342       C  0.23889583  0.54698904  0.27369392     0.32500
C3343       C  0.23476506  0.52229343  0.25139135     0.01100
F3344       F  0.22546450  0.54259123  0.23970655    -0.13200
F3345       F  0.24327302  0.54830492  0.28481678    -0.13700
C3346       C  0.22885243  0.51293519  0.25706824     0.16000
C3347       C  0.22830326  0.50174281  0.25180676     0.25400
C3348       C  0.23352325  0.49975820  0.24069743    -0.40800
C3349       C  0.23950608  0.50910393  0.23505457     0.32400
C3350       C  0.24018328  0.52025833  0.24039543     0.14100
F3351       F  0.22321416  0.51475954  0.26751391    -0.13200
F3352       F  0.24484477  0.50739478  0.22443670    -0.13700
F3353       F  0.22215231  0.49301870  0.25731156    -0.16000
F3354       F  0.24619186  0.52907178  0.23486675    -0.14600
F3355       F  0.24444219  0.52668243  0.27424763    -0.14600
F3356       F  0.22467486  0.56428019  0.25008163    -0.16000
C3357       C  0.39929169  0.50770704  0.98880404     0.14100
C3358       C  0.39931991  0.51717915  0.99686500     0.01000
C3359       C  0.38848584  0.52231093  0.00019265     0.16000
C3360       C  0.37779209  0.51801921  0.99559323     0.25400
C3361       C  0.37771580  0.50850767  0.98752109    -0.40900
C3362       C  0.38860448  0.50339470  0.98418760     0.32500
C3363       C  0.41061060  0.52159597  0.00197054     0.01100
F3364       F  0.38829064  0.53168108  0.00772279    -0.13200
F3365       F  0.38891275  0.49398771  0.97671633    -0.13700
C3366       C  0.41945630  0.52635617  0.99465410     0.16000
C3367       C  0.43002828  0.53065628  0.99953932     0.25400
C3368       C  0.43196455  0.53028009  0.01186333    -0.40800
C3369       C  0.42310914  0.52539088  0.01914747     0.32400
C3370       C  0.41255438  0.52111091  0.01424114     0.14100
F3371       F  0.41777546  0.52700993  0.98277149    -0.13200
F3372       F  0.42446928  0.52504443  0.03107641    -0.13700
F3373       F  0.43846104  0.53494570  0.99215233    -0.16000
F3374       F  0.40422400  0.51639284  0.02148913    -0.14600
F3375       F  0.40962182  0.50245667  0.98559921    -0.14600
F3376       F  0.36755787  0.52346992  0.99874974    -0.16000
C3377       C  0.31817520  0.47951984  0.86401233     0.14100
C3378       C  0.32057381  0.47066649  0.87241514     0.01000
C3379       C  0.32085674  0.45876393  0.86876247     0.16000
C3380       C  0.31859711  0.45575744  0.85693392     0.25400
C3381       C  0.31603575  0.46460850  0.84853878    -0.40900
C3382       C  0.31590708  0.47654138  0.85221814     0.32500
C3383       C  0.32228670  0.47386978  0.88504355     0.01100
F3384       F  0.32304291  0.45001994  0.87671850    -0.13200
F3385       F  0.31316893  0.48535763  0.84451738    -0.13700
C3386       C  0.31337094  0.48003948  0.89111323     0.16000
C3387       C  0.31489146  0.48321205  0.90296387     0.25400
C3388       C  0.32531808  0.48009805  0.90912870    -0.40800
C3389       C  0.33427144  0.47392883  0.90301198     0.32400
C3390       C  0.33277333  0.47088217  0.89107375     0.14100
F3391       F  0.30306232  0.48287993  0.88558220    -0.13200
F3392       F  0.34435778  0.47054874  0.90862342    -0.13700
F3393       F  0.30619795  0.48958105  0.90827067    -0.16000
F3394       F  0.34162462  0.46510555  0.88535970    -0.14600
F3395       F  0.31800708  0.49110402  0.86724939    -0.14600
F3396       F  0.31910397  0.44420251  0.85366552    -0.16000
C3397       C  0.11002346  0.51948879  0.03660134     0.14100
C3398       C  0.10765395  0.51839685  0.02445103     0.01000
C3399       C  0.11609292  0.51307042  0.01708311     0.16000
C3400       C  0.12679541  0.50891058  0.02175265     0.25400
C3401       C  0.12926032  0.50996540  0.03394712    -0.40900
C3402       C  0.12070863  0.51525436  0.04133621     0.32500
C3403       C  0.09653812  0.52305886  0.01928630     0.01100
F3404       F  0.11400991  0.51205580  0.00528779    -0.13200
F3405       F  0.12281907  0.51668092  0.05307747    -0.13700
C3406       C  0.09506536  0.53528758  0.01766317     0.16000
C3407       C  0.08498945  0.53968809  0.01191384     0.25400
C3408       C  0.07618252  0.53190893  0.00769924    -0.40800
C3409       C  0.07760187  0.51965507  0.00952296     0.32400
C3410       C  0.08770532  0.51527606  0.01527322     0.14100
F3411       F  0.10360454  0.54293801  0.02129205    -0.13200
F3412       F  0.06912456  0.51192939  0.00592015    -0.13700
F3413       F  0.08412836  0.55152605  0.01000120    -0.16000
F3414       F  0.08889973  0.50342589  0.01692974    -0.14600
F3415       F  0.10198263  0.52467223  0.04386634    -0.14600
F3416       F  0.13461390  0.50362273  0.01433003    -0.16000
C3417       C  0.18978193  0.44771693  0.14647655     0.14100
C3418       C  0.19460193  0.45654401  0.13918785     0.01000
C3419       C  0.20424773  0.46321033  0.14325868     0.16000
C3420       C  0.20880830  0.46138325  0.15460096     0.25400
C3421       C  0.20369461  0.45292533  0.16220217    -0.40900
C3422       C  0.19427430  0.44592210  0.15793110     0.32500
C3423       C  0.18957425  0.45913172  0.12738248     0.01100
F3424       F  0.20924544  0.47155031  0.13620097    -0.13200
F3425       F  0.18906837  0.43771486  0.16497908    -0.13700
C3426       C  0.18296871  0.46952674  0.12560172     0.16000
C3427       C  0.17962748  0.47297736  0.11417328     0.25400
C3428       C  0.18302391  0.46615941  0.10432528    -0.40800
C3429       C  0.18923032  0.45549053  0.10619301     0.32400
C3430       C  0.19242615  0.45197819  0.11765009     0.14100
F3431       F  0.18017341  0.47657438  0.13492473    -0.13200
F3432       F  0.19235832  0.44855247  0.09689650    -0.13700
F3433       F  0.17378323  0.48338468  0.11269907    -0.16000
F3434       F  0.19879137  0.44188946  0.11920522    -0.14600
F3435       F  0.18051231  0.44110055  0.14262323    -0.14600
F3436       F  0.21835243  0.46782407  0.15806161    -0.16000
C3437       C  0.26751648  0.48793640  0.00702386     0.14100
C3438       C  0.25776567  0.49456479  0.00293497     0.01000
C3439       C  0.25917514  0.50191482  0.99298747     0.16000
C3440       C  0.27014966  0.50266135  0.98729438     0.25400
C3441       C  0.27994527  0.49627477  0.99160872    -0.40900
C3442       C  0.27854112  0.48890380  0.00150102     0.32500
C3443       C  0.24630901  0.49410693  0.00934402     0.01100
F3444       F  0.25001224  0.50860312  0.98896864    -0.13200
F3445       F  0.28774542  0.48229412  0.00554889    -0.13700
C3446       C  0.24597623  0.49651241  0.02154471     0.16000
C3447       C  0.23534025  0.49577411  0.02777932     0.25400
C3448       C  0.22476374  0.49282268  0.02190971    -0.40800
C3449       C  0.22498596  0.49074282  0.00964293     0.32400
C3450       C  0.23570111  0.49125689  0.00342261     0.14100
F3451       F  0.25596597  0.49975153  0.02741708    -0.13200
F3452       F  0.21492175  0.48774670  0.00377143    -0.13700
F3453       F  0.23533975  0.49823356  0.03953912    -0.16000
F3454       F  0.23577050  0.48861457  0.99170098    -0.14600
F3455       F  0.26630159  0.48034887  0.01626188    -0.14600
F3456       F  0.27129434  0.50986669  0.97774610    -0.16000
loop_ 
_geom_bond_atom_site_label_1 
_geom_bond_atom_site_label_2 
_geom_bond_distance 
_geom_bond_site_symmetry_2 
_ccdc_geom_bond_type 
N1            N2   1.322       .  A
N1            C5   1.348       .  A
N1           Cu9   2.088       .  S
N2            C3   1.343       .  A
N2           Cu8   2.069       .  S
C3            C4   1.383       .  A
C3            H6   1.082       .  S
C4            C5   1.388       .  A
C4         C3428   1.482       .  S
C5            H7   1.082       .  S
Cu8          N11   2.069       .  S
Cu9          N19   2.089       .  S
Cu10         N12   2.074       .  S
Cu10         N18   2.075       .  S
N11          N12   1.321       .  A
N11          C15   1.343       .  A
N12          C13   1.347       .  A
C13          C14   1.385       .  A
C13          H16   1.082       .  S
C14          C15   1.383       .  A
C14        C3448   1.478       .  S
C15          H17   1.082       .  S
N18          N19   1.323       .  A
N18          C22   1.344       .  A
N19          C20   1.348       .  A
C20          C21   1.389       .  A
C20          H23   1.082       .  S
C21          C22   1.385       .  A
C21        C3401   1.487       .  S
C22          H24   1.081       .  S
N25          N26   1.319       .  A
N25          C29   1.348       .  A
N25         Cu33   2.085       .  S
N26          C27   1.340       .  A
N26         Cu32   2.054       .  S
C27          C28   1.384       .  A
C27          H30   1.081       .  S
C28          C29   1.392       .  A
C28        C3388   1.488       .  S
C29          H31   1.081       .  S
Cu32         N35   2.054       .  S
Cu33         N43   2.086       .  S
Cu34         N36   2.089       .  S
Cu34         N42   2.090       .  S
N35          N36   1.321       .  A
N35          C39   1.342       .  A
N36          C37   1.348       .  A
C37          C38   1.388       .  A
C37          H40   1.082       .  S
C38          C39   1.379       .  A
C38        C3441   1.475       .  S
C39          H41   1.082       .  S
N42          N43   1.324       .  A
N42          C46   1.348       .  A
N43          C44   1.345       .  A
C44          C45   1.385       .  A
C44          H47   1.085       .  S
C45          C46   1.389       .  A
C45        C3361   1.488       .  S
C46          H48   1.076       .  S
N49          N50   1.321       .  A
N49          C53   1.349       .  A
N49         Cu57   2.087       .  S
N50          C51   1.341       .  A
N50         Cu56   2.062       .  S
C51          C52   1.382       .  A
C51          H54   1.082       .  S
C52          C53   1.389       .  A
C52        C3321   1.482       .  S
C53          H55   1.081       .  S
Cu56         N59   2.061       .  S
Cu57         N67   2.088       .  S
Cu58         N60   2.072       .  S
Cu58         N66   2.074       .  S
N59          N60   1.321       .  A
N59          C63   1.342       .  A
N60          C61   1.346       .  A
C61          C62   1.385       .  A
C61          H64   1.082       .  S
C62          C63   1.382       .  A
C62        C3341   1.475       .  S
C63          H65   1.082       .  S
N66          N67   1.323       .  A
N66          C70   1.345       .  A
N67          C68   1.346       .  A
C68          C69   1.389       .  A
C68          H71   1.081       .  S
C69          C70   1.385       .  A
C69        C3301   1.487       .  S
C70          H72   1.081       .  S
N73          N74   1.321       .  A
N73          C77   1.349       .  A
N73         Cu81   2.084       .  S
N74          C75   1.341       .  A
N74         Cu80   2.064       .  S
C75          C76   1.384       .  A
C75          H78   1.081       .  S
C76          C77   1.390       .  A
C76        C3421   1.485       .  S
C77          H79   1.081       .  S
Cu80         N83   2.063       .  S
Cu81         N91   2.085       .  S
Cu82         N84   2.078       .  S
Cu82         N90   2.079       .  S
N83          N84   1.321       .  A
N83          C87   1.343       .  A
N84          C85   1.346       .  A
C85          C86   1.387       .  A
C85          H88   1.082       .  S
C86          C87   1.382       .  A
C86        C3348   1.478       .  S
C87          H89   1.082       .  S
N90          N91   1.324       .  A
N90          C94   1.345       .  A
N91          C92   1.346       .  A
C92          C93   1.386       .  A
C92          H95   1.082       .  S
C93          C94   1.386       .  A
C93        C3281   1.484       .  S
C94          H96   1.082       .  S
N97          N98   1.321       .  A
N97         C101   1.350       .  A
N97        Cu105   2.093       .  S
N98          C99   1.341       .  A
N98        Cu104   2.059       .  S
C99         C100   1.383       .  A
C99         H102   1.082       .  S
C100        C101   1.391       .  A
C100       C3241   1.486       .  S
C101        H103   1.082       .  S
Cu104       N107   2.059       .  S
Cu105       N115   2.093       .  S
Cu106       N108   2.072       .  S
Cu106       N114   2.074       .  S
N107        N108   1.320       .  A
N107        C111   1.342       .  A
N108        C109   1.346       .  A
C109        C110   1.385       .  A
C109        H112   1.082       .  S
C110        C111   1.381       .  A
C110       C3261   1.474       .  S
C111        H113   1.082       .  S
N114        N115   1.324       .  A
N114        C118   1.344       .  A
N115        C116   1.347       .  A
C116        C117   1.389       .  A
C116        H119   1.081       .  S
C117        C118   1.385       .  A
C117       C3221   1.487       .  S
C118        H120   1.081       .  S
N121        N122   1.321       .  A
N121        C125   1.348       .  A
N121       Cu129   2.084       .  S
N122        C123   1.340       .  A
N122       Cu128   2.059       .  S
C123        C124   1.383       .  A
C123        H126   1.081       .  S
C124        C125   1.390       .  A
C124       C3328   1.485       .  S
C125        H127   1.081       .  S
Cu128       N131   2.059       .  S
Cu129       N139   2.085       .  S
Cu130       N132   2.065       .  S
Cu130       N138   2.066       .  S
N131        N132   1.320       .  A
N131        C135   1.342       .  A
N132        C133   1.345       .  A
C133        C134   1.385       .  A
C133        H136   1.082       .  S
C134        C135   1.382       .  A
C134       C3268   1.473       .  S
C135        H137   1.082       .  S
N138        N139   1.323       .  A
N138        C142   1.342       .  A
N139        C140   1.346       .  A
C140        C141   1.388       .  A
C140        H143   1.081       .  S
C141        C142   1.383       .  A
C141       C3201   1.484       .  S
C142        H144   1.081       .  S
N145        N146   1.322       .  A
N145        C149   1.352       .  A
N145       Cu153   2.095       .  S
N146        C147   1.339       .  A
N146       Cu152   2.066       .  S
C147        C148   1.384       .  A
C147        H150   1.081       .  S
C148        C149   1.393       .  A
C148       C3248   1.490       .  S
C149        H151   1.082       .  S
Cu152       N155   2.067       .  S
Cu153       N163   2.096       .  S
Cu154       N156   2.080       .  S
Cu154       N162   2.082       .  S
N155        N156   1.318       .  A
N155        C159   1.344       .  A
N156        C157   1.347       .  A
C157        C158   1.393       .  A
C157        H160   1.080       .  S
C158        C159   1.390       .  A
C158       C3181   1.496       .  S
C159        H161   1.081       .  S
N162        N163   1.324       .  A
N162        C166   1.344       .  A
N163        C164   1.349       .  A
C164        C165   1.391       .  A
C164        H167   1.081       .  S
C165        C166   1.387       .  A
C165       C3168   1.492       .  S
C166        H168   1.081       .  S
N169        N170   1.321       .  A
N169        C173   1.349       .  A
N169       Cu177   2.093       .  S
N170        C171   1.342       .  A
N170       Cu176   2.059       .  S
C171        C172   1.383       .  A
C171        H174   1.082       .  S
C172        C173   1.391       .  A
C172       C3381   1.486       .  S
C173        H175   1.082       .  S
Cu176       N179   2.059       .  S
Cu177       N187   2.095       .  S
Cu178       N180   2.087       .  S
Cu178       N186   2.088       .  S
N179        N180   1.320       .  A
N179        C183   1.341       .  A
N180        C181   1.349       .  A
C181        C182   1.393       .  A
C181        H184   1.081       .  S
C182        C183   1.385       .  A
C182       C3188   1.490       .  S
C183        H185   1.081       .  S
N186        N187   1.325       .  A
N186        C190   1.346       .  A
N187        C188   1.349       .  A
C188        C189   1.388       .  A
C188        H191   1.082       .  S
C189        C190   1.385       .  A
C189       C3141   1.486       .  S
C190        H192   1.082       .  S
N193        N194   1.321       .  A
N193        C197   1.347       .  A
N193       Cu201   2.081       .  S
N194        C195   1.341       .  A
N194       Cu200   2.062       .  S
C195        C196   1.383       .  A
C195        H198   1.082       .  S
C196        C197   1.389       .  A
C196       C3101   1.483       .  S
C197        H199   1.081       .  S
Cu200       N203   2.061       .  S
Cu201       N211   2.082       .  S
Cu202       N204   2.068       .  S
Cu202       N210   2.069       .  S
N203        N204   1.320       .  A
N203        C207   1.342       .  A
N204        C205   1.345       .  A
C205        C206   1.385       .  A
C205        H208   1.082       .  S
C206        C207   1.383       .  A
C206       C3121   1.475       .  S
C207        H209   1.082       .  S
N210        N211   1.323       .  A
N210        C214   1.342       .  A
N211        C212   1.347       .  A
C212        C213   1.386       .  A
C212        H215   1.082       .  S
C213        C214   1.383       .  A
C213       C3081   1.481       .  S
C214        H216   1.082       .  S
N217        N218   1.321       .  A
N217        C221   1.350       .  A
N217       Cu225   2.093       .  S
N218        C219   1.341       .  A
N218       Cu224   2.065       .  S
C219        C220   1.383       .  A
C219        H222   1.082       .  S
C220        C221   1.392       .  A
C220       C3061   1.486       .  S
C221        H223   1.082       .  S
Cu224       N227   2.064       .  S
Cu225       N235   2.093       .  S
Cu226       N228   2.075       .  S
Cu226       N234   2.077       .  S
N227        N228   1.321       .  A
N227        C231   1.344       .  A
N228        C229   1.346       .  A
C229        C230   1.385       .  A
C229        H232   1.082       .  S
C230        C231   1.381       .  A
C230       C3128   1.474       .  S
C231        H233   1.082       .  S
N234        N235   1.324       .  A
N234        C238   1.345       .  A
N235        C236   1.347       .  A
C236        C237   1.389       .  A
C236        H239   1.081       .  S
C237        C238   1.386       .  A
C237       C3048   1.488       .  S
C238        H240   1.081       .  S
N241        N242   1.321       .  A
N241        C245   1.347       .  A
N241       Cu249   2.084       .  S
N242        C243   1.341       .  A
N242       Cu248   2.063       .  S
C243        C244   1.384       .  A
C243        H246   1.081       .  S
C244        C245   1.390       .  A
C244       C3108   1.485       .  S
C245        H247   1.081       .  S
Cu248       N251   2.062       .  S
Cu249       N259   2.084       .  S
Cu250       N252   2.062       .  S
Cu250       N258   2.063       .  S
N251        N252   1.319       .  A
N251        C255   1.342       .  A
N252        C253   1.345       .  A
C253        C254   1.385       .  A
C253        H256   1.082       .  S
C254        C255   1.384       .  A
C254       C3021   1.476       .  S
C255        H257   1.082       .  S
N258        N259   1.323       .  A
N258        C262   1.340       .  A
N259        C260   1.348       .  A
C260        C261   1.387       .  A
C260        H263   1.082       .  S
C261        C262   1.381       .  A
C261       C3001   1.478       .  S
C262        H264   1.082       .  S
N265        N266   1.321       .  A
N265        C269   1.347       .  A
N265       Cu273   2.085       .  S
N266        C267   1.342       .  A
N266       Cu272   2.060       .  S
C267        C268   1.384       .  A
C267        H270   1.082       .  S
C268        C269   1.389       .  A
C268       C2981   1.484       .  S
C269        H271   1.082       .  S
Cu272       N275   2.060       .  S
Cu273       N283   2.086       .  S
Cu274       N276   2.069       .  S
Cu274       N282   2.070       .  S
N275        N276   1.321       .  A
N275        C279   1.342       .  A
N276        C277   1.345       .  A
C277        C278   1.385       .  A
C277        H280   1.082       .  S
C278        C279   1.382       .  A
C278       C3028   1.475       .  S
C279        H281   1.082       .  S
N282        N283   1.323       .  A
N282        C286   1.344       .  A
N283        C284   1.346       .  A
C284        C285   1.387       .  A
C284        H287   1.082       .  S
C285        C286   1.383       .  A
C285       C2961   1.482       .  S
C286        H288   1.082       .  S
N289        N290   1.320       .  A
N289        C293   1.349       .  A
N289       Cu297   2.077       .  S
N290        C291   1.339       .  A
N290       Cu296   2.058       .  S
C291        C292   1.382       .  A
C291        H294   1.082       .  S
C292        C293   1.389       .  A
C292       C2928   1.480       .  S
C293        H295   1.082       .  S
Cu296       N299   2.059       .  S
Cu297       N307   2.079       .  S
Cu298       N300   2.097       .  S
Cu298       N306   2.099       .  S
N299        N300   1.320       .  A
N299        C303   1.342       .  A
N300        C301   1.351       .  A
C301        C302   1.393       .  A
C301        H304   1.082       .  S
C302        C303   1.383       .  A
C302       C2941   1.488       .  S
C303        H305   1.082       .  S
N306        N307   1.325       .  A
N306        C310   1.348       .  A
N307        C308   1.345       .  A
C308        C309   1.383       .  A
C308        H311   1.082       .  S
C309        C310   1.387       .  A
C309       C2901   1.484       .  S
C310        H312   1.082       .  S
N313        N314   1.322       .  A
N313        C317   1.347       .  A
N313       Cu321   2.081       .  S
N314        C315   1.346       .  A
N314       Cu320   2.083       .  S
C315        C316   1.388       .  A
C315        H318   1.082       .  S
C316        C317   1.388       .  A
C316       C3068   1.489       .  S
C317        H319   1.081       .  S
Cu320       N323   2.082       .  S
Cu321       N331   2.081       .  S
Cu322       N324   2.087       .  S
Cu322       N330   2.087       .  S
N323        N324   1.323       .  A
N323        C327   1.346       .  A
N324        C325   1.348       .  A
C325        C326   1.386       .  A
C325        H328   1.082       .  S
C326        C327   1.384       .  A
C326       C2948   1.482       .  S
C327        H329   1.082       .  S
N330        N331   1.323       .  A
N330        C334   1.347       .  A
N331        C332   1.346       .  A
C332        C333   1.386       .  A
C332        H335   1.082       .  S
C333        C334   1.388       .  A
C333       C2888   1.487       .  S
C334        H336   1.082       .  S
N337        N338   1.321       .  A
N337        C341   1.349       .  A
N337       Cu345   2.089       .  S
N338        C339   1.340       .  A
N338       Cu344   2.055       .  S
C339        C340   1.380       .  A
C339        H342   1.082       .  S
C340        C341   1.390       .  A
C340       C2921   1.480       .  S
C341        H343   1.082       .  S
Cu344       N347   2.055       .  S
Cu345       N355   2.090       .  S
Cu346       N348   2.086       .  S
Cu346       N354   2.088       .  S
N347        N348   1.319       .  A
N347        C351   1.341       .  A
N348        C349   1.349       .  A
C349        C350   1.392       .  A
C349        H352   1.081       .  S
C350        C351   1.383       .  A
C350       C2868   1.485       .  S
C351        H353   1.082       .  S
N354        N355   1.324       .  A
N354        C358   1.345       .  A
N355        C356   1.348       .  A
C356        C357   1.389       .  A
C356        H359   1.081       .  S
C357        C358   1.387       .  A
C357       C2848   1.491       .  S
C358        H360   1.081       .  S
N361        N362   1.321       .  A
N361        C365   1.348       .  A
N361       Cu369   2.083       .  S
N362        C363   1.343       .  A
N362       Cu368   2.068       .  S
C363        C364   1.384       .  A
C363        H366   1.082       .  S
C364        C365   1.388       .  A
C364       C2988   1.482       .  S
C365        H367   1.082       .  S
Cu368       N371   2.068       .  S
Cu369       N379   2.084       .  S
Cu370       N372   2.085       .  S
Cu370       N378   2.086   1_545  S
N371        N372   1.321   1_565  A
N371        C375   1.343   1_565  A
N372        C373   1.347       .  A
C373        C374   1.390       .  A
C373        H376   1.081       .  S
C374        C375   1.385       .  A
C374       C2861   1.488       .  S
C375        H377   1.082   1_545  S
N378        N379   1.323       .  A
N378        C382   1.347   1_565  A
N379        C380   1.345       .  A
C380        C381   1.387   1_565  A
C380        H383   1.081       .  S
C381        C382   1.387       .  A
C381       C2821   1.488       .  S
C382        H384   1.082       .  S
N385        N386   1.321       .  A
N385        C389   1.347       .  A
N385       Cu393   2.082       .  S
N386        C387   1.343       .  A
N386       Cu392   2.071       .  S
C387        C388   1.386       .  A
C387        H390   1.082       .  S
C388        C389   1.388       .  A
C388       C2788   1.486       .  S
C389        H391   1.081       .  S
Cu392       N395   2.071       .  S
Cu393       N403   2.083       .  S
Cu394       N396   2.071       .  S
Cu394       N402   2.072       .  S
N395        N396   1.322       .  A
N395        C399   1.344       .  A
N396        C397   1.346       .  A
C397        C398   1.383       .  A
C397        H400   1.082       .  S
C398        C399   1.382       .  A
C398       C2801   1.473       .  S
C399        H401   1.082       .  S
N402        N403   1.322       .  A
N402        C406   1.344       .  A
N403        C404   1.346       .  A
C404        C405   1.388       .  A
C404        H407   1.082       .  S
C405        C406   1.385       .  A
C405       C2768   1.484       .  S
C406        H408   1.081       .  S
N409        N410   1.320       .  A
N409        C413   1.349       .  A
N409       Cu417   2.078       .  S
N410        C411   1.339       .  A
N410       Cu416   2.057       .  S
C411        C412   1.381       .  A
C411        H414   1.082       .  S
C412        C413   1.388       .  A
C412       C2741   1.478       .  S
C413        H415   1.082       .  S
Cu416       N419   2.057       .  S
Cu417       N427   2.080       .  S
Cu418       N420   2.086       .  S
Cu418       N426   2.088       .  S
N419        N420   1.320       .  A
N419        C423   1.342       .  A
N420        C421   1.348       .  A
C421        C422   1.390       .  A
C421        H424   1.081       .  S
C422        C423   1.381       .  A
C422       C2808   1.481       .  S
C423        H425   1.082       .  S
N426        N427   1.324       .  A
N426        C430   1.346       .  A
N427        C428   1.345       .  A
C428        C429   1.386       .  A
C428        H431   1.081       .  S
C429        C430   1.388       .  A
C429       C2721   1.488       .  S
C430        H432   1.081       .  S
N433        N434   1.320       .  A
N433        C437   1.346       .  A
N433       Cu441   2.079       .  S
N434        C435   1.342       .  A
N434       Cu440   2.069       .  S
C435        C436   1.389       .  A
C435        H438   1.080       .  S
C436        C437   1.392       .  A
C436       C2681   1.493       .  S
C437        H439   1.081       .  S
Cu440       N443   2.068       .  S
Cu441       N451   2.080       .  S
Cu442       N444   2.070       .  S
Cu442       N450   2.071       .  S
N443        N444   1.321       .  A
N443        C447   1.344       .  A
N444        C445   1.345       .  A
C445        C446   1.384       .  A
C445        H448   1.082       .  S
C446        C447   1.384       .  A
C446       C2708   1.476       .  S
C447        H449   1.082       .  S
N450        N451   1.322       .  A
N450        C454   1.344       .  A
N451        C452   1.345       .  A
C452        C453   1.387       .  A
C452        H455   1.082       .  S
C453        C454   1.385       .  A
C453       C2661   1.484       .  S
C454        H456   1.081       .  S
N457        N458   1.322       .  A
N457        C461   1.350       .  A
N457       Cu465   2.092       .  S
N458        C459   1.339       .  A
N458       Cu464   2.052       .  S
C459        C460   1.378       .  A
C459        H462   1.082       .  S
C460        C461   1.389       .  A
C460       C2748   1.476       .  S
C461        H463   1.082       .  S
Cu464       N467   2.051       .  S
Cu465       N475   2.093       .  S
Cu466       N468   2.068       .  S
Cu466       N474   2.069       .  S
N467        N468   1.318       .  A
N467        C471   1.341       .  A
N468        C469   1.345       .  A
C469        C470   1.387       .  A
C469        H472   1.082       .  S
C470        C471   1.382       .  A
C470       C2701   1.476       .  S
C471        H473   1.082       .  S
N474        N475   1.324       .  A
N474        C478   1.341       .  A
N475        C476   1.349       .  A
C476        C477   1.389       .  A
C476        H479   1.082       .  S
C477        C478   1.381       .  A
C477       C2641   1.482       .  S
C478        H480   1.082       .  S
N481        N482   1.322       .  A
N481        C485   1.350       .  A
N481       Cu489   2.096       .  S
N482        C483   1.341       .  A
N482       Cu488   2.054       .  S
C483        C484   1.380       .  A
C483        H486   1.082       .  S
C484        C485   1.391       .  A
C484       C2608   1.482       .  S
C485        H487   1.082       .  S
Cu488       N491   2.054       .  S
Cu489       N499   2.096       .  S
Cu490       N492   2.062       .  S
Cu490       N498   2.063       .  S
N491        N492   1.317       .  A
N491        C495   1.340       .  A
N492        C493   1.343       .  A
C493        C494   1.389       .  A
C493        H496   1.080       .  S
C494        C495   1.387       .  A
C494       C2621   1.485       .  S
C495        H497   1.080       .  S
N498        N499   1.322       .  A
N498        C502   1.342       .  A
N499        C500   1.348       .  A
C500        C501   1.392       .  A
C500        H503   1.081       .  S
C501        C502   1.384       .  A
C501       C2581   1.489       .  S
C502        H504   1.081       .  S
N505        N506   1.320       .  A
N505        C509   1.347       .  A
N505       Cu513   2.084       .  S
N506        C507   1.341       .  A
N506       Cu512   2.057       .  S
C507        C508   1.384       .  A
C507        H510   1.082       .  S
C508        C509   1.391       .  A
C508       C2781   1.485       .  S
C509        H511   1.081       .  S
Cu512       N515   2.056       .  S
Cu513       N523   2.085       .  S
Cu514       N516   2.073       .  S
Cu514       N522   2.075       .  S
N515        N516   1.320       .  A
N515        C519   1.341       .  A
N516        C517   1.345       .  A
C517        C518   1.387       .  A
C517        H520   1.081       .  S
C518        C519   1.383       .  A
C518       C2628   1.479       .  S
C519        H521   1.082       .  S
N522        N523   1.323       .  A
N522        C526   1.345       .  A
N523        C524   1.345       .  A
C524        C525   1.387       .  A
C524        H527   1.082       .  S
C525        C526   1.386       .  A
C525       C2561   1.485       .  S
C526        H528   1.081       .  S
N529        N530   1.322       .  A
N529        C533   1.347       .  A
N529       Cu537   2.082       .  S
N530        C531   1.343       .  A
N530       Cu536   2.068       .  S
C531        C532   1.382       .  A
C531        H534   1.082       .  S
C532        C533   1.387       .  A
C532       C2601   1.478       .  S
C533        H535   1.082       .  S
Cu536       N539   2.068       .  S
Cu537       N547   2.082       .  S
Cu538       N540   2.073       .  S
Cu538       N546   2.074       .  S
N539        N540   1.321       .  A
N539        C543   1.343       .  A
N540        C541   1.345       .  A
C541        C542   1.388       .  A
C541        H544   1.081       .  S
C542        C543   1.386       .  A
C542       C2548   1.484       .  S
C543        H545   1.082       .  S
N546        N547   1.322       .  A
N546        C550   1.345       .  A
N547        C548   1.346       .  A
C548        C549   1.387       .  A
C548        H551   1.081       .  S
C549        C550   1.386       .  A
C549       C2528   1.486       .  S
C550        H552   1.081       .  S
N553        N554   1.321       .  A
N553        C557   1.348       .  A
N553       Cu561   2.088       .  S
N554        C555   1.340       .  A
N554       Cu560   2.056       .  S
C555        C556   1.383       .  A
C555        H558   1.081       .  S
C556        C557   1.390       .  A
C556       C2688   1.484       .  S
C557        H559   1.082       .  S
Cu560       N563   2.056       .  S
Cu561       N571   2.089       .  S
Cu562       N564   2.075       .  S
Cu562       N570   2.077       .  S
N563        N564   1.320       .  A
N563        C567   1.342       .  A
N564        C565   1.347       .  A
C565        C566   1.386       .  A
C565        H568   1.082       .  S
C566        C567   1.382       .  A
C566       C2541   1.477       .  S
C567        H569   1.082       .  S
N570        N571   1.323       .  A
N570        C574   1.344       .  A
N571        C572   1.347       .  A
C572        C573   1.391       .  A
C572        H575   1.081       .  S
C573        C574   1.387       .  A
C573       C2501   1.492       .  S
C574        H576   1.081       .  S
N577        N578   1.320       .  A
N577        C581   1.348       .  A
N577       Cu585   2.077       .  S
N578        C579   1.341       .  A
N578       Cu584   2.063       .  S
C579        C580   1.384       .  A
C579        H582   1.082       .  S
C580        C581   1.388       .  A
C580       C2461   1.482       .  S
C581        H583   1.081       .  S
Cu584       N587   2.062       .  S
Cu585       N595   2.078       .  S
Cu586       N588   2.083       .  S
Cu586       N594   2.084       .  S
N587        N588   1.321       .  A
N587        C591   1.342       .  A
N588        C589   1.348       .  A
C589        C590   1.390       .  A
C589        H592   1.082       .  S
C590        C591   1.383       .  A
C590       C2481   1.484   1_565  S
C591        H593   1.082       .  S
N594        N595   1.324       .  A
N594        C598   1.346       .  A
N595        C596   1.344       .  A
C596        C597   1.384       .  A
C596        H599   1.082       .  S
C597        C598   1.386       .  A
C597       C2441   1.482       .  S
C598        H600   1.082       .  S
N601        N602   1.321       .  A
N601        C605   1.348       .  A
N601       Cu609   2.083       .  S
N602        C603   1.342       .  A
N602       Cu608   2.064       .  S
C603        C604   1.384       .  A
C603        H606   1.082       .  S
C604        C605   1.389       .  A
C604       C2421   1.483       .  S
C605        H607   1.082       .  S
Cu608       N611   2.063       .  S
Cu609       N619   2.084       .  S
Cu610       N612   2.076       .  S
Cu610       N618   2.077       .  S
N611        N612   1.320       .  A
N611        C615   1.341       .  A
N612        C613   1.348       .  A
C613        C614   1.388       .  A
C613        H616   1.082       .  S
C614        C615   1.384       .  A
C614       C2488   1.481       .  S
C615        H617   1.082       .  S
N618        N619   1.323       .  A
N618        C622   1.343       .  A
N619        C620   1.347       .  A
C620        C621   1.387       .  A
C620        H623   1.082       .  S
C621        C622   1.385       .  A
C621       C2408   1.485       .  S
C622        H624   1.081       .  S
N625        N626   1.319       .  A
N625        C629   1.348       .  A
N625       Cu633   2.085       .  S
N626        C627   1.341       .  A
N626       Cu632   2.051       .  S
C627        C628   1.383       .  A
C627        H630   1.081       .  S
C628        C629   1.392       .  A
C628       C2468   1.486       .  S
C629        H631   1.081       .  S
Cu632       N635   2.051       .  S
Cu633       N643   2.087       .  S
Cu634       N636   2.087       .  S
Cu634       N642   2.089       .  S
N635        N636   1.320       .  A
N635        C639   1.339       .  A
N636        C637   1.350       .  A
C637        C638   1.390       .  A
C637        H640   1.082       .  S
C638        C639   1.380       .  A
C638       C2381   1.479       .  S
C639        H641   1.082       .  S
N642        N643   1.325       .  A
N642        C646   1.345       .  A
N643        C644   1.347       .  A
C644        C645   1.386       .  A
C644        H647   1.082       .  S
C645        C646   1.386       .  A
C645       C2361   1.485   1_565  S
C646        H648   1.082   1_565  S
N649        N650   1.321       .  A
N649        C653   1.348       .  A
N649       Cu657   2.082       .  S
N650        C651   1.342       .  A
N650       Cu656   2.065       .  S
C651        C652   1.383       .  A
C651        H654   1.082       .  S
C652        C653   1.388       .  A
C652       C2341   1.482       .  S
C653        H655   1.082       .  S
Cu656       N659   2.064       .  S
Cu657       N667   2.083       .  S
Cu658       N660   2.076       .  S
Cu658       N666   2.077       .  S
N659        N660   1.321       .  A
N659        C663   1.343       .  A
N660        C661   1.347       .  A
C661        C662   1.385       .  A
C661        H664   1.082       .  S
C662        C663   1.381       .  A
C662       C2388   1.474       .  S
C663        H665   1.082       .  S
N666        N667   1.323       .  A
N666        C670   1.345   1_565  A
N667        C668   1.345   1_565  A
C668        C669   1.387       .  A
C668        H671   1.082       .  S
C669        C670   1.386       .  A
C669       C2321   1.485       .  S
C670        H672   1.081       .  S
N673        N674   1.321       .  A
N673        C677   1.351       .  A
N673       Cu681   2.094       .  S
N674        C675   1.340       .  A
N674       Cu680   2.055       .  S
C675        C676   1.380       .  A
C675        H678   1.082       .  S
C676        C677   1.391       .  A
C676       C2281   1.481       .  S
C677        H679   1.082       .  S
Cu680       N683   2.054       .  S
Cu681       N691   2.095       .  S
Cu682       N684   2.080       .  S
Cu682       N690   2.082       .  S
N683        N684   1.319       .  A
N683        C687   1.340       .  A
N684        C685   1.349       .  A
C685        C686   1.390       .  A
C685        H688   1.082       .  S
C686        C687   1.382       .  A
C686       C2301   1.482       .  S
C687        H689   1.082       .  S
N690        N691   1.325       .  A
N690        C694   1.344       .  A
N691        C692   1.349       .  A
C692        C693   1.388       .  A
C692        H695   1.082       .  S
C693        C694   1.384       .  A
C693       C2261   1.485       .  S
C694        H696   1.082       .  S
N697        N698   1.320       .  A
N697        C701   1.348       .  A
N697       Cu705   2.085       .  S
N698        C699   1.341       .  A
N698       Cu704   2.063       .  S
C699        C700   1.387       .  A
C699        H702   1.080       .  S
C700        C701   1.393       .  A
C700       C2348   1.492       .  S
C701        H703   1.081       .  S
Cu704       N707   2.063       .  S
Cu705       N715   2.086       .  S
Cu706       N708   2.069       .  S
Cu706       N714   2.070       .  S
N707        N708   1.319       .  A
N707        C711   1.341       .  A
N708        C709   1.346       .  A
C709        C710   1.388       .  A
C709        H712   1.081       .  S
C710        C711   1.385       .  A
C710       C2308   1.483   1_565  S
C711        H713   1.081       .  S
N714        N715   1.323       .  A
N714        C718   1.342       .  A
N715        C716   1.346       .  A
C716        C717   1.388       .  A
C716        H719   1.081       .  S
C717        C718   1.384       .  A
C717       C2248   1.484       .  S
C718        H720   1.081       .  S
N721        N722   1.320       .  A
N721        C725   1.349       .  A
N721       Cu729   2.078       .  S
N722        C723   1.341       .  A
N722       Cu728   2.057       .  S
C723        C724   1.381       .  A
C723        H726   1.082       .  S
C724        C725   1.388       .  A
C724       C2428   1.477       .  S
C725        H727   1.082       .  S
Cu728       N731   2.057       .  S
Cu729       N739   2.080       .  S
Cu730       N732   2.092       .  S
Cu730       N738   2.093       .  S
N731        N732   1.321       .  A
N731        C735   1.341       .  A
N732        C733   1.349       .  A
C733        C734   1.390       .  A
C733        H736   1.082       .  S
C734        C735   1.381       .  A
C734       C2221   1.482       .  S
C735        H737   1.082       .  S
N738        N739   1.324       .  A
N738        C742   1.349       .  A
N739        C740   1.344       .  A
C740        C741   1.384       .  A
C740        H743   1.082       .  S
C741        C742   1.388       .  A
C741       C2208   1.486       .  S
C742        H744   1.082       .  S
N745        N746   1.322       .  A
N745        C749   1.350       .  A
N745       Cu753   2.097       .  S
N746        C747   1.342       .  A
N746       Cu752   2.060       .  S
C747        C748   1.381       .  A
C747        H750   1.082       .  S
C748        C749   1.390       .  A
C748       C2288   1.482       .  S
C749        H751   1.082       .  S
Cu752       N755   2.060       .  S
Cu753       N763   2.098       .  S
Cu754       N756   2.075       .  S
Cu754       N762   2.076       .  S
N755        N756   1.320       .  A
N755        C759   1.342       .  A
N756        C757   1.347       .  A
C757        C758   1.386       .  A
C757        H760   1.082       .  S
C758        C759   1.381       .  A
C758       C2228   1.475       .  S
C759        H761   1.082       .  S
N762        N763   1.324       .  A
N762        C766   1.344       .  A
N763        C764   1.349       .  A
C764        C765   1.389       .  A
C764        H767   1.082       .  S
C765        C766   1.383       .  A
C765       C2188   1.485       .  S
C766        H768   1.082       .  S
N769        N770   1.322       .  A
N769        C773   1.347       .  A
N769       Cu777   2.082   1_545  S
N770        C771   1.345       .  A
N770       Cu776   2.072       .  S
C771        C772   1.385       .  A
C771        H774   1.082       .  S
C772        C773   1.387       .  A
C772       C2841   1.483       .  S
C773        H775   1.082       .  S
Cu776       N779   2.072       .  S
Cu777       N787   2.082       .  S
Cu778       N780   2.087   1_565  S
Cu778       N786   2.087       .  S
N779        N780   1.321       .  A
N779        C783   1.344       .  A
N780        C781   1.348       .  A
C781        C782   1.390       .  A
C781        H784   1.081   1_554  S
C782        C783   1.385       .  A
C782       C2201   1.488       .  S
C783        H785   1.082       .  S
N786        N787   1.323       .  A
N786        C790   1.346       .  A
N787        C788   1.347       .  A
C788        C789   1.388       .  A
C788        H791   1.081       .  S
C789        C790   1.389       .  A
C789       C2161   1.491       .  S
C790        H792   1.081       .  S
N793        N794   1.323       .  A
N793        C797   1.347       .  A
N793       Cu801   2.088       .  S
N794        C795   1.346       .  A
N794       Cu800   2.081       .  S
C795        C796   1.387       .  A
C795        H798   1.081       .  S
C796        C797   1.389       .  A
C796       C2368   1.489       .  S
C797        H799   1.081       .  S
Cu800       N803   2.081       .  S
Cu801       N811   2.088       .  S
Cu802       N804   2.070       .  S
Cu802       N810   2.070       .  S
N803        N804   1.320       .  A
N803        C807   1.346       .  A
N804        C805   1.344       .  A
C805        C806   1.387       .  A
C805        H808   1.081       .  S
C806        C807   1.390       .  A
C806       C2588   1.489       .  S
C807        H809   1.081       .  S
N810        N811   1.321       .  A
N810        C814   1.343       .  A
N811        C812   1.348       .  A
C812        C813   1.390       .  A
C812        H815   1.081       .  S
C813        C814   1.386       .  A
C813       C2828   1.489       .  S
C814        H816   1.081       .  S
N817        N818   1.320       .  A
N817        C821   1.345       .  A
N817       Cu825   2.076       .  S
N818        C819   1.341       .  A
N818       Cu824   2.057       .  S
C819        C820   1.384       .  A
C819        H822   1.081       .  S
C820        C821   1.389       .  A
C820       C2121   1.484       .  S
C821        H823   1.081       .  S
Cu824       N827   2.056       .  S
Cu825       N835   2.077       .  S
Cu826       N828   2.071       .  S
Cu826       N834   2.072       .  S
N827        N828   1.321       .  A
N827        C831   1.341       .  A
N828        C829   1.346       .  A
C829        C830   1.385       .  A
C829        H832   1.082       .  S
C830        C831   1.380       .  A
C830       C2141   1.472       .  S
C831        H833   1.082       .  S
N834        N835   1.323       .  A
N834        C838   1.343       .  A
N835        C836   1.345       .  A
C836        C837   1.386       .  A
C836        H839   1.081       .  S
C837        C838   1.385       .  A
C837       C2101   1.482       .  S
C838        H840   1.081       .  S
N841        N842   1.320       .  A
N841        C845   1.347       .  A
N841       Cu849   2.080       .  S
N842        C843   1.339       .  A
N842       Cu848   2.054       .  S
C843        C844   1.384       .  A
C843        H846   1.081       .  S
C844        C845   1.391       .  A
C844       C2081   1.486       .  S
C845        H847   1.081       .  S
Cu848       N851   2.053       .  S
Cu849       N859   2.081       .  S
Cu850       N852   2.068       .  S
Cu850       N858   2.070       .  S
N851        N852   1.320       .  A
N851        C855   1.341       .  A
N852        C853   1.346       .  A
C853        C854   1.385       .  A
C853        H856   1.082       .  S
C854        C855   1.380       .  A
C854       C2148   1.472       .  S
C855        H857   1.082       .  S
N858        N859   1.323       .  A
N858        C862   1.342       .  A
N859        C860   1.346       .  A
C860        C861   1.386       .  A
C860        H863   1.082       .  S
C861        C862   1.383       .  A
C861       C2068   1.479       .  S
C862        H864   1.082       .  S
N865        N866   1.321       .  A
N865        C869   1.347       .  A
N865       Cu873   2.076       .  S
N866        C867   1.342       .  A
N866       Cu872   2.066       .  S
C867        C868   1.383       .  A
C867        H870   1.082       .  S
C868        C869   1.386       .  A
C868       C2128   1.478       .  S
C869        H871   1.082       .  S
Cu872       N875   2.066       .  S
Cu873       N883   2.077       .  S
Cu874       N876   2.083       .  S
Cu874       N882   2.084       .  S
N875        N876   1.322       .  A
N875        C879   1.343       .  A
N876        C877   1.348       .  A
C877        C878   1.386       .  A
C877        H880   1.082       .  S
C878        C879   1.381       .  A
C878       C2041   1.477       .  S
C879        H881   1.082       .  S
N882        N883   1.323       .  A
N882        C886   1.346       .  A
N883        C884   1.345       .  A
C884        C885   1.386       .  A
C884        H887   1.081       .  S
C885        C886   1.388       .  A
C885       C2021   1.487       .  S
C886        H888   1.081       .  S
N889        N890   1.322       .  A
N889        C893   1.347       .  A
N889       Cu897   2.084       .  S
N890        C891   1.342       .  A
N890       Cu896   2.063       .  S
C891        C892   1.382       .  A
C891        H894   1.082       .  S
C892        C893   1.387       .  A
C892       C2001   1.479       .  S
C893        H895   1.082       .  S
Cu896       N899   2.064       .  S
Cu897       N907   2.085       .  S
Cu898       N900   2.074       .  S
Cu898       N906   2.076       .  S
N899        N900   1.321       .  A
N899        C903   1.343       .  A
N900        C901   1.346       .  A
C901        C902   1.385       .  A
C901        H904   1.082       .  S
C902        C903   1.383       .  A
C902       C2048   1.477       .  S
C903        H905   1.082       .  S
N906        N907   1.322       .  A
N906        C910   1.344       .  A
N907        C908   1.347       .  A
C908        C909   1.390       .  A
C908        H911   1.081       .  S
C909        C910   1.387       .  A
C909       C2168   1.490       .  S
C910        H912   1.081       .  S
N913        N914   1.321       .  A
N913        C917   1.347       .  A
N913       Cu921   2.075       .  S
N914        C915   1.341       .  A
N914       Cu920   2.060       .  S
C915        C916   1.381       .  A
C915        H918   1.082       .  S
C916        C917   1.387       .  A
C916       C2088   1.477       .  S
C917        H919   1.082       .  S
Cu920       N923   2.060       .  S
Cu921       N931   2.076       .  S
Cu922       N924   2.073       .  S
Cu922       N930   2.074       .  S
N923        N924   1.320       .  A
N923        C927   1.342       .  A
N924        C925   1.346       .  A
C925        C926   1.385       .  A
C925        H928   1.082       .  S
C926        C927   1.381       .  A
C926       C1981   1.474       .  S
C927        H929   1.082       .  S
N930        N931   1.323       .  A
N930        C934   1.343       .  A
N931        C932   1.345       .  A
C932        C933   1.386       .  A
C932        H935   1.082       .  S
C933        C934   1.385       .  A
C933       C1968   1.482       .  S
C934        H936   1.081       .  S
N937        N938   1.321       .  A
N937        C941   1.348       .  A
N937       Cu945   2.082       .  S
N938        C939   1.341       .  A
N938       Cu944   2.065       .  S
C939        C940   1.384       .  A
C939        H942   1.081       .  S
C940        C941   1.390       .  A
C940       C1948   1.485       .  S
C941        H943   1.081       .  S
Cu944       N947   2.064       .  S
Cu945       N955   2.082       .  S
Cu946       N948   2.075       .  S
Cu946       N954   2.076       .  S
N947        N948   1.321       .  A
N947        C951   1.343       .  A
N948        C949   1.347       .  A
C949        C950   1.385       .  A
C949        H952   1.082       .  S
C950        C951   1.382       .  A
C950       C1988   1.475       .  S
C951        H953   1.082       .  S
N954        N955   1.323       .  A
N954        C958   1.343       .  A
N955        C956   1.347       .  A
C956        C957   1.387       .  A
C956        H959   1.082       .  S
C957        C958   1.384       .  A
C957       C1928   1.483       .  S
C958        H960   1.082       .  S
N961        N962   1.320       .  A
N961        C965   1.347       .  A
N961       Cu969   2.078       .  S
N962        C963   1.340       .  A
N962       Cu968   2.059       .  S
C963        C964   1.383       .  A
C963        H966   1.081       .  S
C964        C965   1.389       .  A
C964       C2008   1.481       .  S
C965        H967   1.082       .  S
Cu968       N971   2.059       .  S
Cu969       N979   2.079       .  S
Cu970       N972   2.078       .  S
Cu970       N978   2.079       .  S
N971        N972   1.320       .  A
N971        C975   1.341       .  A
N972        C973   1.348       .  A
C973        C974   1.387       .  A
C973        H976   1.082       .  S
C974        C975   1.381       .  A
C974       C1901   1.477       .  S
C975        H977   1.082       .  S
N978        N979   1.324       .  A
N978        C982   1.344       .  A
N979        C980   1.345       .  A
C980        C981   1.385       .  A
C980        H983   1.082       .  S
C981        C982   1.384       .  A
C981       C1881   1.481       .  S
C982        H984   1.082       .  S
N985        N986   1.322       .  A
N985        C989   1.348       .  A
N985       Cu993   2.086       .  S
N986        C987   1.342       .  A
N986       Cu992   2.067       .  S
C987        C988   1.384       .  A
C987        H990   1.082       .  S
C988        C989   1.389       .  A
C988       C1941   1.485       .  S
C989        H991   1.081       .  S
Cu992       N995   2.066       .  S
Cu993      N1003   2.086       .  S
Cu994       N996   2.080       .  S
Cu994      N1002   2.081       .  S
N995        N996   1.321       .  A
N995        C999   1.344       .  A
N996        C997   1.347       .  A
C997        C998   1.387       .  A
C997       H1000   1.081       .  S
C998        C999   1.383       .  A
C998       C1908   1.480       .  S
C999       H1001   1.082       .  S
N1002      N1003   1.324       .  A
N1002      C1006   1.345       .  A
N1003      C1004   1.347       .  A
C1004      C1005   1.386       .  A
C1004      H1007   1.082       .  S
C1005      C1006   1.385       .  A
C1005      C1868   1.483       .  S
C1006      H1008   1.082       .  S
N1009      N1010   1.323       .  A
N1009      C1013   1.348       .  A
N1009     Cu1017   2.092       .  S
N1010      C1011   1.344   1_556  A
N1010     Cu1016   2.071       .  S
C1011      C1012   1.383       .  A
C1011      H1014   1.082       .  S
C1012      C1013   1.388   1_554  A
C1012      C3408   1.484       .  S
C1013      H1015   1.082       .  S
Cu1016     N1019   2.071       .  S
Cu1017     N1027   2.092       .  S
Cu1018     N1020   2.074       .  S
Cu1018     N1026   2.075       .  S
N1019      N1020   1.321       .  A
N1019      C1023   1.345       .  A
N1020      C1021   1.344       .  A
C1021      C1022   1.387       .  A
C1021      H1024   1.081       .  S
C1022      C1023   1.387       .  A
C1022      C1961   1.485       .  S
C1023      H1025   1.081   1_556  S
N1026      N1027   1.322       .  A
N1026      C1030   1.345       .  A
N1027      C1028   1.348       .  A
C1028      C1029   1.391       .  A
C1028      H1031   1.081       .  S
C1029      C1030   1.387       .  A
C1029      C1848   1.492       .  S
C1030      H1032   1.081       .  S
N1033      N1034   1.323       .  A
N1033      C1037   1.347       .  A
N1033     Cu1041   2.086       .  S
N1034      C1035   1.344       .  A
N1034     Cu1040   2.075       .  S
C1035      C1036   1.384       .  A
C1035      H1038   1.082       .  S
C1036      C1037   1.387       .  A
C1036      C3041   1.484       .  S
C1037      H1039   1.082       .  S
Cu1040     N1043   2.074       .  S
Cu1041     N1051   2.086       .  S
Cu1042     N1044   2.075       .  S
Cu1042     N1050   2.075       .  S
N1043      N1044   1.320       .  A
N1043      C1047   1.345       .  A
N1044      C1045   1.345       .  A
C1045      C1046   1.388       .  A
C1045      H1048   1.081       .  S
C1046      C1047   1.388       .  A
C1046      C3368   1.488       .  S
C1047      H1049   1.081       .  S
N1050      N1051   1.322       .  A
N1050      C1054   1.343       .  A
N1051      C1052   1.348       .  A
C1052      C1053   1.391       .  A
C1052      H1055   1.081       .  S
C1053      C1054   1.387       .  A
C1053      C2028   1.492       .  S
C1054      H1056   1.081       .  S
N1057      N1058   1.320       .  A
N1057      C1061   1.350       .  A
N1057     Cu1065   2.083       .  S
N1058      C1059   1.338       .  A
N1058     Cu1064   2.051       .  S
C1059      C1060   1.380       .  A
C1059      H1062   1.082       .  S
C1060      C1061   1.390       .  A
C1060      C1801   1.479       .  S
C1061      H1063   1.082       .  S
Cu1064     N1067   2.051       .  S
Cu1065     N1075   2.085       .  S
Cu1066     N1068   2.078       .  S
Cu1066     N1074   2.080       .  S
N1067      N1068   1.319       .  A
N1067      C1071   1.340       .  A
N1068      C1069   1.348       .  A
C1069      C1070   1.389       .  A
C1069      H1072   1.082       .  S
C1070      C1071   1.380       .  A
C1070      C1821   1.477       .  S
C1071      H1073   1.082       .  S
N1074      N1075   1.325       .  A
N1074      C1078   1.343       .  A
N1075      C1076   1.347       .  A
C1076      C1077   1.386       .  A
C1076      H1079   1.081       .  S
C1077      C1078   1.384       .  A
C1077      C1781   1.482       .  S
C1078      H1080   1.082       .  S
N1081      N1082   1.321       .  A
N1081      C1085   1.348       .  A
N1081     Cu1089   2.088       .  S
N1082      C1083   1.342       .  A
N1082     Cu1088   2.066       .  S
C1083      C1084   1.385       .  A
C1083      H1086   1.081       .  S
C1084      C1085   1.390       .  A
C1084      C1761   1.487       .  S
C1085      H1087   1.081       .  S
Cu1088     N1091   2.066       .  S
Cu1089     N1099   2.089       .  S
Cu1090     N1092   2.079       .  S
Cu1090     N1098   2.080       .  S
N1091      N1092   1.322       .  A
N1091      C1095   1.344       .  A
N1092      C1093   1.347       .  A
C1093      C1094   1.384       .  A
C1093      H1096   1.082       .  S
C1094      C1095   1.381       .  A
C1094      C1828   1.474       .  S
C1095      H1097   1.082       .  S
N1098      N1099   1.323       .  A
N1098      C1102   1.346       .  A
N1099      C1100   1.347       .  A
C1100      C1101   1.389       .  A
C1100      H1103   1.081       .  S
C1101      C1102   1.387       .  A
C1101      C1748   1.491       .  S
C1102      H1104   1.081       .  S
N1105      N1106   1.321       .  A
N1105      C1109   1.348       .  A
N1105     Cu1113   2.086       .  S
N1106      C1107   1.341       .  A
N1106     Cu1112   2.054       .  S
C1107      C1108   1.381       .  A
C1107      H1110   1.082       .  S
C1108      C1109   1.390       .  A
C1108      C1808   1.481       .  S
C1109      H1111   1.082       .  S
Cu1112     N1115   2.054       .  S
Cu1113     N1123   2.088       .  S
Cu1114     N1116   2.082       .  S
Cu1114     N1122   2.083       .  S
N1115      N1116   1.319       .  A
N1115      C1119   1.340       .  A
N1116      C1117   1.348       .  A
C1117      C1118   1.391       .  A
C1117      H1120   1.081       .  S
C1118      C1119   1.383       .  A
C1118      C1721   1.485       .  S
C1119      H1121   1.082       .  S
N1122      N1123   1.324       .  A
N1122      C1126   1.344       .  A
N1123      C1124   1.347       .  A
C1124      C1125   1.388       .  A
C1124      H1127   1.082       .  S
C1125      C1126   1.386       .  A
C1125      C1701   1.487       .  S
C1126      H1128   1.081       .  S
N1129      N1130   1.320       .  A
N1129      C1133   1.346       .  A
N1129     Cu1137   2.076       .  S
N1130      C1131   1.340       .  A
N1130     Cu1136   2.053       .  S
C1131      C1132   1.383       .  A
C1131      H1134   1.081       .  S
C1132      C1133   1.388       .  A
C1132      C1681   1.480       .  S
C1133      H1135   1.082       .  S
Cu1136     N1139   2.053       .  S
Cu1137     N1147   2.078       .  S
Cu1138     N1140   2.094       .  S
Cu1138     N1146   2.095       .  S
N1139      N1140   1.321       .  A
N1139      C1143   1.341       .  A
N1140      C1141   1.350       .  A
C1141      C1142   1.391       .  A
C1141      H1144   1.082       .  S
C1142      C1143   1.381       .  A
C1142      C1728   1.482       .  S
C1143      H1145   1.082       .  S
N1146      N1147   1.324       .  A
N1146      C1150   1.347       .  A
N1147      C1148   1.346       .  A
C1148      C1149   1.386       .  A
C1148      H1151   1.082       .  S
C1149      C1150   1.389       .  A
C1149      C1841   1.489       .  S
C1150      H1152   1.081       .  S
N1153      N1154   1.321       .  A
N1153      C1157   1.349       .  A
N1153     Cu1161   2.089       .  S
N1154      C1155   1.340       .  A
N1154     Cu1160   2.059       .  S
C1155      C1156   1.383       .  A
C1155      H1158   1.081       .  S
C1156      C1157   1.392       .  A
C1156      C1768   1.487       .  S
C1157      H1159   1.082       .  S
Cu1160     N1163   2.059       .  S
Cu1161     N1171   2.090       .  S
Cu1162     N1164   2.074   1_565  S
Cu1162     N1170   2.075       .  S
N1163      N1164   1.319   1_565  A
N1163      C1167   1.342       .  A
N1164      C1165   1.346       .  A
C1165      C1166   1.390       .  A
C1165      H1168   1.081       .  S
C1166      C1167   1.385   1_545  A
C1166      C1661   1.485       .  S
C1167      H1169   1.081       .  S
N1170      N1171   1.323       .  A
N1170      C1174   1.343   1_565  A
N1171      C1172   1.348       .  A
C1172      C1173   1.391       .  A
C1172      H1175   1.081       .  S
C1173      C1174   1.386   1_565  A
C1173      C1641   1.491   1_565  S
C1174      H1176   1.081       .  S
N1177      N1178   1.320       .  A
N1177      C1181   1.349       .  A
N1177     Cu1185   2.085       .  S
N1178      C1179   1.341       .  A
N1178     Cu1184   2.062       .  S
C1179      C1180   1.384       .  A
C1179      H1182   1.081       .  S
C1180      C1181   1.391       .  A
C1180      C1621   1.486       .  S
C1181      H1183   1.082       .  S
Cu1184     N1187   2.062       .  S
Cu1185     N1195   2.086       .  S
Cu1186     N1188   2.078       .  S
Cu1186     N1194   2.080       .  S
N1187      N1188   1.319       .  A
N1187      C1191   1.341       .  A
N1188      C1189   1.348       .  A
C1189      C1190   1.391       .  A
C1189      H1192   1.081       .  S
C1190      C1191   1.385       .  A
C1190      C1668   1.487       .  S
C1191      H1193   1.081       .  S
N1194      N1195   1.324       .  A
N1194      C1198   1.344       .  A
N1195      C1196   1.346       .  A
C1196      C1197   1.388       .  A
C1196      H1199   1.081       .  S
C1197      C1198   1.387       .  A
C1197      C1601   1.488       .  S
C1198      H1200   1.081       .  S
N1201      N1202   1.320       .  A
N1201      C1205   1.347       .  A
N1201     Cu1209   2.085       .  S
N1202      C1203   1.343       .  A
N1202     Cu1208   2.060       .  S
C1203      C1204   1.387       .  A
C1203      H1206   1.081       .  S
C1204      C1205   1.391       .  A
C1204      C1628   1.490       .  S
C1205      H1207   1.081       .  S
Cu1208     N1211   2.060       .  S
Cu1209     N1219   2.087       .  S
Cu1210     N1212   2.076       .  S
Cu1210     N1218   2.078       .  S
N1211      N1212   1.321       .  A
N1211      C1215   1.340       .  A
N1212      C1213   1.348       .  A
C1213      C1214   1.387       .  A
C1213      H1216   1.082       .  S
C1214      C1215   1.381       .  A
C1214      C1588   1.477       .  S
C1215      H1217   1.082       .  S
N1218      N1219   1.324       .  A
N1218      C1222   1.345       .  A
N1219      C1220   1.346       .  A
C1220      C1221   1.387       .  A
C1220      H1223   1.081       .  S
C1221      C1222   1.385       .  A
C1221      C1568   1.486       .  S
C1222      H1224   1.082       .  S
N1225      N1226   1.321       .  A
N1225      C1229   1.346       .  A
N1225     Cu1233   2.078       .  S
N1226      C1227   1.340       .  A
N1226     Cu1232   2.052       .  S
C1227      C1228   1.380       .  A
C1227      H1230   1.082       .  S
C1228      C1229   1.387       .  A
C1228      C1688   1.475       .  S
C1229      H1231   1.082       .  S
Cu1232     N1235   2.051       .  S
Cu1233     N1243   2.079       .  S
Cu1234     N1236   2.075       .  S
Cu1234     N1242   2.077       .  S
N1235      N1236   1.321       .  A
N1235      C1239   1.341       .  A
N1236      C1237   1.346       .  A
C1237      C1238   1.385       .  A
C1237      H1240   1.082       .  S
C1238      C1239   1.379       .  A
C1238      C1581   1.470       .  S
C1239      H1241   1.082       .  S
N1242      N1243   1.322       .  A
N1242      C1246   1.343       .  A
N1243      C1244   1.346       .  A
C1244      C1245   1.388       .  A
C1244      H1247   1.081       .  S
C1245      C1246   1.387       .  A
C1245      C1541   1.488       .  S
C1246      H1248   1.081       .  S
N1249      N1250   1.321       .  A
N1249      C1253   1.345       .  A
N1249     Cu1257   2.067       .  S
N1250      C1251   1.345       .  A
N1250     Cu1256   2.079       .  S
C1251      C1252   1.388       .  A
C1251      H1254   1.081   1_655  S
C1252      C1253   1.386       .  A
C1252      C2668   1.485       .  S
C1253      H1255   1.081       .  S
Cu1256     N1259   2.079       .  S
Cu1257     N1267   2.068       .  S
Cu1258     N1260   2.081       .  S
Cu1258     N1266   2.081       .  S
N1259      N1260   1.322       .  A
N1259      C1263   1.346       .  A
N1260      C1261   1.345       .  A
C1261      C1262   1.387       .  A
C1261      H1264   1.081       .  S
C1262      C1263   1.387       .  A
C1262      C1648   1.487   1_655  S
C1263      H1265   1.081   1_655  S
N1266      N1267   1.321       .  A
N1266      C1270   1.347       .  A
N1267      C1268   1.342       .  A
C1268      C1269   1.385       .  A
C1268      H1271   1.081       .  S
C1269      C1270   1.388       .  A
C1269      C2328   1.484       .  S
C1270      H1272   1.082       .  S
N1273      N1274   1.322       .  A
N1273      C1277   1.345       .  A
N1273     Cu1281   2.081       .  S
N1274      C1275   1.344       .  A
N1274     Cu1280   2.068       .  S
C1275      C1276   1.385       .  A
C1275      H1278   1.082       .  S
C1276      C1277   1.387       .  A
C1276      C2648   1.483       .  S
C1277      H1279   1.082       .  S
Cu1280     N1283   2.068       .  S
Cu1281     N1291   2.081       .  S
Cu1282     N1284   2.070       .  S
Cu1282     N1290   2.071       .  S
N1283      N1284   1.321       .  A
N1283      C1287   1.343       .  A
N1284      C1285   1.345       .  A
C1285      C1286   1.384       .  A
C1285      H1288   1.082       .  S
C1286      C1287   1.383       .  A
C1286      C3208   1.476       .  S
C1287      H1289   1.082       .  S
N1290      N1291   1.322       .  A
N1290      C1294   1.343       .  A
N1291      C1292   1.346       .  A
C1292      C1293   1.388       .  A
C1292      H1295   1.081       .  S
C1293      C1294   1.386       .  A
C1293      C1708   1.486       .  S
C1294      H1296   1.081       .  S
N1297      N1298   1.320       .  A
N1297      C1301   1.345   1_655  A
N1297     Cu1305   2.071       .  S
N1298      C1299   1.345       .  A
N1298     Cu1304   2.078       .  S
C1299      C1300   1.388   1_655  A
C1299      H1302   1.081       .  S
C1300      C1301   1.387       .  A
C1300      C1921   1.487       .  S
C1301      H1303   1.081       .  S
Cu1304     N1307   2.078   1_565  S
Cu1305     N1315   2.072   1_565  S
Cu1306     N1308   2.079       .  S
Cu1306     N1314   2.079       .  S
N1307      N1308   1.322       .  A
N1307      C1311   1.344       .  A
N1308      C1309   1.348       .  A
C1309      C1310   1.387       .  A
C1309      H1312   1.082       .  S
C1310      C1311   1.386       .  A
C1310      C2181   1.485       .  S
C1311      H1313   1.082       .  S
N1314      N1315   1.322       .  A
N1314      C1318   1.345       .  A
N1315      C1316   1.343   1_655  A
C1316      C1317   1.387   1_455  A
C1316      H1319   1.081       .  S
C1317      C1318   1.389       .  A
C1317      C1608   1.487   1_655  S
C1318      H1320   1.081       .  S
N1321      N1322   1.321       .  A
N1321      C1325   1.343       .  A
N1321     Cu1329   2.065       .  S
N1322      C1323   1.346       .  A
N1322     Cu1328   2.083       .  S
C1323      C1324   1.390       .  A
C1323      H1326   1.081       .  S
C1324      C1325   1.385       .  A
C1324      C2448   1.486       .  S
C1325      H1327   1.081       .  S
Cu1328     N1331   2.083       .  S
Cu1329     N1339   2.065       .  S
Cu1330     N1332   2.064       .  S
Cu1330     N1338   2.064       .  S
N1331      N1332   1.322       .  A
N1331      C1335   1.346       .  A
N1332      C1333   1.343       .  A
C1333      C1334   1.384       .  A
C1333      H1336   1.081       .  S
C1334      C1335   1.389       .  A
C1334      C2108   1.483       .  S
C1335      H1337   1.081       .  S
N1338      N1339   1.320       .  A
N1338      C1342   1.344       .  A
N1339      C1340   1.343       .  A
C1340      C1341   1.385       .  A
C1340      H1343   1.082       .  S
C1341      C1342   1.385       .  A
C1341      C1788   1.478       .  S
C1342      H1344   1.082       .  S
N1345      N1346   1.321       .  A
N1345      C1349   1.344       .  A
N1345     Cu1353   2.078       .  S
N1346      C1347   1.348       .  A
N1346     Cu1352   2.086       .  S
C1347      C1348   1.392       .  A
C1347      H1350   1.081       .  S
C1348      C1349   1.388       .  A
C1348      C1741   1.494       .  S
C1349      H1351   1.081       .  S
Cu1352     N1355   2.085       .  S
Cu1353     N1363   2.078       .  S
Cu1354     N1356   2.074       .  S
Cu1354     N1362   2.074       .  S
N1355      N1356   1.323       .  A
N1355      C1359   1.346       .  A
N1356      C1357   1.345       .  A
C1357      C1358   1.384       .  A
C1357      H1360   1.082       .  S
C1358      C1359   1.386       .  A
C1358      C1888   1.482       .  S
C1359      H1361   1.082       .  S
N1362      N1363   1.321       .  A
N1362      C1366   1.346       .  A
N1363      C1364   1.345       .  A
C1364      C1365   1.387       .  A
C1364      H1367   1.081       .  S
C1365      C1366   1.388       .  A
C1365      C3161   1.487       .  S
C1366      H1368   1.082       .  S
N1369      N1370   1.321       .  A
N1369      C1373   1.345       .  A
N1369     Cu1377   2.075       .  S
N1370      C1371   1.345       .  A
N1370     Cu1376   2.075       .  S
C1371      C1372   1.387       .  A
C1371      H1374   1.081       .  S
C1372      C1373   1.388       .  A
C1372      C2401   1.487       .  S
C1373      H1375   1.081       .  S
Cu1376     N1379   2.075       .  S
Cu1377     N1387   2.075       .  S
Cu1378     N1380   2.082       .  S
Cu1378     N1386   2.082       .  S
N1379      N1380   1.322       .  A
N1379      C1383   1.344       .  A
N1380      C1381   1.346       .  A
C1381      C1382   1.388       .  A
C1381      H1384   1.081       .  S
C1382      C1383   1.386       .  A
C1382      C1548   1.487       .  S
C1383      H1385   1.081       .  S
N1386      N1387   1.322       .  A
N1386      C1390   1.346       .  A
N1387      C1388   1.345       .  A
C1388      C1389   1.386       .  A
C1388      H1391   1.082       .  S
C1389      C1390   1.388       .  A
C1389      C2761   1.486       .  S
C1390      H1392   1.082       .  S
N1393      N1394   1.321       .  A
N1393      C1397   1.344       .  A
N1393     Cu1401   2.066       .  S
N1394      C1395   1.344       .  A
N1394     Cu1400   2.067       .  S
C1395      C1396   1.384       .  A
C1395      H1398   1.082       .  S
C1396      C1397   1.385       .  A
C1396      C2061   1.478       .  S
C1397      H1399   1.082       .  S
Cu1400     N1403   2.068       .  S
Cu1401     N1411   2.066       .  S
Cu1402     N1404   2.074       .  S
Cu1402     N1410   2.073       .  S
N1403      N1404   1.322       .  A
N1403      C1407   1.343       .  A
N1404      C1405   1.345       .  A
C1405      C1406   1.386       .  A
C1405      H1408   1.082       .  S
C1406      C1407   1.384       .  A
C1406      C2241   1.481       .  S
C1407      H1409   1.081       .  S
N1410      N1411   1.322       .  A
N1410      C1414   1.345       .  A
N1411      C1412   1.342       .  A
C1412      C1413   1.382       .  A
C1412      H1415   1.082       .  S
C1413      C1414   1.385       .  A
C1413      C3008   1.477       .  S
C1414      H1416   1.082       .  S
N1417      N1418   1.323       .  A
N1417      C1421   1.345       .  A
N1417     Cu1425   2.079       .  S
N1418      C1419   1.347       .  A
N1418     Cu1424   2.085       .  S
C1419      C1420   1.386       .  A
C1419      H1422   1.082       .  S
C1420      C1421   1.385       .  A
C1420      C2881   1.483       .  S
C1421      H1423   1.082       .  S
Cu1424     N1427   2.085       .  S
Cu1425     N1435   2.079       .  S
Cu1426     N1428   2.076       .  S
Cu1426     N1434   2.076       .  S
N1427      N1428   1.322       .  A
N1427      C1431   1.347       .  A
N1428      C1429   1.344       .  A
C1429      C1430   1.386       .  A
C1429      H1432   1.081       .  S
C1430      C1431   1.389       .  A
C1430      C2728   1.488       .  S
C1431      H1433   1.081       .  S
N1434      N1435   1.321       .  A
N1434      C1438   1.346       .  A
N1435      C1436   1.345       .  A
C1436      C1437   1.386       .  A
C1436      H1439   1.082       .  S
C1437      C1438   1.387       .  A
C1437      C2268   1.484       .  S
C1438      H1440   1.082       .  S
N1441      N1442   1.322       .  A
N1441      C1445   1.345       .  A
N1441     Cu1449   2.082       .  S
N1442      C1443   1.346       .  A
N1442     Cu1448   2.079       .  S
C1443      C1444   1.387       .  A
C1443      H1446   1.081       .  S
C1444      C1445   1.388       .  A
C1444      C2521   1.488       .  S
C1445      H1447   1.081       .  S
Cu1448     N1451   2.079       .  S
Cu1449     N1459   2.082       .  S
Cu1450     N1452   2.076       .  S
Cu1450     N1458   2.076       .  S
N1451      N1452   1.322       .  A
N1451      C1455   1.346       .  A
N1452      C1453   1.345       .  A
C1453      C1454   1.386       .  A
C1453      H1456   1.082       .  S
C1454      C1455   1.387       .  A
C1454      C3148   1.485       .  S
C1455      H1457   1.082       .  S
N1458      N1459   1.322       .  A
N1458      C1462   1.344       .  A
N1459      C1460   1.347       .  A
C1460      C1461   1.388       .  A
C1460      H1463   1.082       .  S
C1461      C1462   1.386       .  A
C1461      C1561   1.486       .  S
C1462      H1464   1.082       .  S
N1465      N1466   1.321       .  A
N1465      C1469   1.345       .  A
N1465     Cu1473   2.075       .  S
N1466      C1467   1.345       .  A
N1466     Cu1472   2.075       .  S
C1467      C1468   1.387       .  A
C1467      H1470   1.082       .  S
C1468      C1469   1.386       .  A
C1468      C3308   1.485       .  S
C1469      H1471   1.081       .  S
Cu1472     N1475   2.075       .  S
Cu1473     N1483   2.076       .  S
Cu1474     N1476   2.079       .  S
Cu1474     N1482   2.079       .  S
N1475      N1476   1.322       .  A
N1475      C1479   1.345       .  A
N1476      C1477   1.346       .  A
C1477      C1478   1.386       .  A
C1477      H1480   1.082       .  S
C1478      C1479   1.385       .  A
C1478      C2968   1.482       .  S
C1479      H1481   1.082       .  S
N1482      N1483   1.322       .  A
N1482      C1486   1.346       .  A
N1483      C1484   1.345       .  A
C1484      C1485   1.386       .  A
C1484      H1487   1.082       .  S
C1485      C1486   1.387       .  A
C1485      C1861   1.485       .  S
C1486      H1488   1.082       .  S
N1489      N1490   1.322       .  A
N1489      C1493   1.346       .  A
N1489     Cu1497   2.078       .  S
N1490      C1491   1.344       .  A
N1490     Cu1496   2.077       .  S
C1491      C1492   1.385       .  A
C1491      H1494   1.082       .  S
C1492      C1493   1.386       .  A
C1492      C3088   1.482       .  S
C1493      H1495   1.082       .  S
Cu1496     N1499   2.077       .  S
Cu1497     N1507   2.079       .  S
Cu1498     N1500   2.078       .  S
Cu1498     N1506   2.079       .  S
N1499      N1500   1.322       .  A
N1499      C1503   1.346       .  A
N1500      C1501   1.345       .  A
C1501      C1502   1.387       .  A
C1501      H1504   1.082       .  S
C1502      C1503   1.387       .  A
C1502      C2568   1.485       .  S
C1503      H1505   1.082       .  S
N1506      N1507   1.321       .  A
N1506      C1510   1.345       .  A
N1507      C1508   1.345       .  A
C1508      C1509   1.389       .  A
C1508      H1511   1.081       .  S
C1509      C1510   1.389       .  A
C1509      C3228   1.491       .  S
C1510      H1512   1.081       .  S
N1513      N1514   1.322       .  A
N1513      C1517   1.346       .  A
N1513     Cu1521   2.081       .  S
N1514      C1515   1.345       .  A
N1514     Cu1520   2.074       .  S
C1515      C1516   1.385       .  A
C1515      H1518   1.082       .  S
C1516      C1517   1.387       .  A
C1516      C3288   1.483       .  S
C1517      H1519   1.082       .  S
Cu1520     N1523   2.074       .  S
Cu1521     N1531   2.081       .  S
Cu1522     N1524   2.083       .  S
Cu1522     N1530   2.084       .  S
N1523      N1524   1.322       .  A
N1523      C1527   1.344       .  A
N1524      C1525   1.347       .  A
C1525      C1526   1.389       .  A
C1525      H1528   1.082       .  S
C1526      C1527   1.385       .  A
C1526      C2908   1.486       .  S
C1527      H1529   1.081       .  S
N1530      N1531   1.322       .  A
N1530      C1534   1.346       .  A
N1531      C1532   1.346       .  A
C1532      C1533   1.388       .  A
C1532      H1535   1.081       .  S
C1533      C1534   1.388       .  A
C1533      C2508   1.489       .  S
C1534      H1536   1.081       .  S
C1537      C1538   1.406       .  A
C1537      C1542   1.401       .  A
C1537      F1555   1.358       .  S
C1538      C1539   1.404       .  A
C1538      C1543   1.485       .  S
C1539      C1540   1.398       .  A
C1539      F1544   1.358       .  S
C1540      C1541   1.410       .  A
C1540      F1556   1.357       .  S
C1541      C1542   1.410       .  A
C1542      F1545   1.357       .  S
C1543      C1546   1.406       .  A
C1543      C1550   1.405       .  A
C1546      C1547   1.401       .  A
C1546      F1551   1.358       .  S
C1547      C1548   1.409       .  A
C1547      F1553   1.357       .  S
C1548      C1549   1.410       .  A
C1549      C1550   1.399       .  A
C1549      F1552   1.357       .  S
C1550      F1554   1.358       .  S
C1557      C1558   1.406       .  A
C1557      C1562   1.402       .  A
C1557      F1575   1.358       .  S
C1558      C1559   1.404       .  A
C1558      C1563   1.484       .  S
C1559      C1560   1.399       .  A
C1559      F1564   1.358       .  S
C1560      C1561   1.409       .  A
C1560      F1576   1.357       .  S
C1561      C1562   1.409       .  A
C1562      F1565   1.357       .  S
C1563      C1566   1.405       .  A
C1563      C1570   1.405       .  A
C1566      C1567   1.401       .  A
C1566      F1571   1.358       .  S
C1567      C1568   1.409       .  A
C1567      F1573   1.357       .  S
C1568      C1569   1.409       .  A
C1569      C1570   1.399       .  A
C1569      F1572   1.357       .  S
C1570      F1574   1.358       .  S
C1577      C1578   1.406   1_655  A
C1577      C1582   1.397       .  A
C1577      F1595   1.358   1_655  S
C1578      C1579   1.409   1_455  A
C1578      C1583   1.482       .  S
C1579      C1580   1.397       .  A
C1579      F1584   1.358       .  S
C1580      C1581   1.403       .  A
C1580      F1596   1.358       .  S
C1581      C1582   1.405       .  A
C1582      F1585   1.358       .  S
C1583      C1586   1.408       .  A
C1583      C1590   1.405       .  A
C1586      C1587   1.400       .  A
C1586      F1591   1.358       .  S
C1587      C1588   1.406       .  A
C1587      F1593   1.357       .  S
C1588      C1589   1.407       .  A
C1589      C1590   1.395       .  A
C1589      F1592   1.358       .  S
C1590      F1594   1.358       .  S
C1597      C1598   1.402       .  A
C1597      C1602   1.398       .  A
C1597      F1615   1.358       .  S
C1598      C1599   1.403       .  A
C1598      C1603   1.479       .  S
C1599      C1600   1.400       .  A
C1599      F1604   1.358       .  S
C1600      C1601   1.411       .  A
C1600      F1616   1.357       .  S
C1601      C1602   1.411       .  A
C1602      F1605   1.357       .  S
C1603      C1606   1.403       .  A
C1603      C1610   1.403       .  A
C1606      C1607   1.399       .  A
C1606      F1611   1.358       .  S
C1607      C1608   1.411       .  A
C1607      F1613   1.357       .  S
C1608      C1609   1.411       .  A
C1609      C1610   1.399       .  A
C1609      F1612   1.357   1_455  S
C1610      F1614   1.358       .  S
C1617      C1618   1.406       .  A
C1617      C1622   1.403       .  A
C1617      F1635   1.358       .  S
C1618      C1619   1.403       .  A
C1618      C1623   1.483       .  S
C1619      C1620   1.396       .  A
C1619      F1624   1.358       .  S
C1620      C1621   1.410       .  A
C1620      F1636   1.357       .  S
C1621      C1622   1.409       .  A
C1622      F1625   1.357       .  S
C1623      C1626   1.404       .  A
C1623      C1630   1.404       .  A
C1626      C1627   1.401       .  A
C1626      F1631   1.358       .  S
C1627      C1628   1.411       .  A
C1627      F1633   1.357       .  S
C1628      C1629   1.412       .  A
C1629      C1630   1.398       .  A
C1629      F1632   1.357       .  S
C1630      F1634   1.358       .  S
C1637      C1638   1.405   1_565  A
C1637      C1642   1.402       .  A
C1637      F1655   1.358       .  S
C1638      C1639   1.403       .  A
C1638      C1643   1.484       .  S
C1639      C1640   1.398       .  A
C1639      F1644   1.358       .  S
C1640      C1641   1.412       .  A
C1640      F1656   1.357       .  S
C1641      C1642   1.411   1_545  A
C1642      F1645   1.357       .  S
C1643      C1646   1.405       .  A
C1643      C1650   1.405       .  A
C1646      C1647   1.400   1_455  A
C1646      F1651   1.358   1_455  S
C1647      C1648   1.410   1_655  A
C1647      F1653   1.357       .  S
C1648      C1649   1.410       .  A
C1649      C1650   1.400       .  A
C1649      F1652   1.357       .  S
C1650      F1654   1.358       .  S
C1657      C1658   1.403       .  A
C1657      C1662   1.398       .  A
C1657      F1675   1.358       .  S
C1658      C1659   1.404       .  A
C1658      C1663   1.480       .  S
C1659      C1660   1.399       .  A
C1659      F1664   1.358       .  S
C1660      C1661   1.410       .  A
C1660      F1676   1.357       .  S
C1661      C1662   1.410       .  A
C1662      F1665   1.357       .  S
C1663      C1666   1.402       .  A
C1663      C1670   1.405       .  A
C1666      C1667   1.397       .  A
C1666      F1671   1.358       .  S
C1667      C1668   1.411       .  A
C1667      F1673   1.357       .  S
C1668      C1669   1.410       .  A
C1669      C1670   1.400       .  A
C1669      F1672   1.357       .  S
C1670      F1674   1.358       .  S
C1677      C1678   1.401       .  A
C1677      C1682   1.394       .  A
C1677      F1695   1.358       .  S
C1678      C1679   1.402       .  A
C1678      C1683   1.471       .  S
C1679      C1680   1.400       .  A
C1679      F1684   1.358       .  S
C1680      C1681   1.409       .  A
C1680      F1696   1.357       .  S
C1681      C1682   1.410       .  A
C1682      F1685   1.357       .  S
C1683      C1686   1.402       .  A
C1683      C1690   1.403       .  A
C1686      C1687   1.396       .  A
C1686      F1691   1.358       .  S
C1687      C1688   1.408       .  A
C1687      F1693   1.358       .  S
C1688      C1689   1.407       .  A
C1689      C1690   1.398       .  A
C1689      F1692   1.357       .  S
C1690      F1694   1.358       .  S
C1697      C1698   1.403       .  A
C1697      C1702   1.399       .  A
C1697      F1715   1.358       .  S
C1698      C1699   1.405       .  A
C1698      C1703   1.482   1_655  S
C1699      C1700   1.401       .  A
C1699      F1704   1.358   1_655  S
C1700      C1701   1.409       .  A
C1700      F1716   1.357       .  S
C1701      C1702   1.410       .  A
C1702      F1705   1.357       .  S
C1703      C1706   1.405   1_455  A
C1703      C1710   1.403       .  A
C1706      C1707   1.401   1_655  A
C1706      F1711   1.358       .  S
C1707      C1708   1.409       .  A
C1707      F1713   1.357   1_455  S
C1708      C1709   1.410       .  A
C1709      C1710   1.398       .  A
C1709      F1712   1.357       .  S
C1710      F1714   1.358       .  S
C1717      C1718   1.405       .  A
C1717      C1722   1.402       .  A
C1717      F1735   1.358       .  S
C1718      C1719   1.403       .  A
C1718      C1723   1.480       .  S
C1719      C1720   1.397       .  A
C1719      F1724   1.358       .  S
C1720      C1721   1.410       .  A
C1720      F1736   1.357       .  S
C1721      C1722   1.409       .  A
C1722      F1725   1.357       .  S
C1723      C1726   1.406       .  A
C1723      C1730   1.403       .  A
C1726      C1727   1.401       .  A
C1726      F1731   1.358       .  S
C1727      C1728   1.407       .  A
C1727      F1733   1.357       .  S
C1728      C1729   1.410       .  A
C1729      C1730   1.398       .  A
C1729      F1732   1.358       .  S
C1730      F1734   1.358       .  S
C1737      C1738   1.403       .  A
C1737      C1742   1.402       .  A
C1737      F1755   1.358       .  S
C1738      C1739   1.402       .  A
C1738      C1743   1.482       .  S
C1739      C1740   1.402       .  A
C1739      F1744   1.358       .  S
C1740      C1741   1.413       .  A
C1740      F1756   1.357       .  S
C1741      C1742   1.411       .  A
C1742      F1745   1.357       .  S
C1743      C1746   1.403       .  A
C1743      C1750   1.403       .  A
C1746      C1747   1.401       .  A
C1746      F1751   1.358       .  S
C1747      C1748   1.410       .  A
C1747      F1753   1.357       .  S
C1748      C1749   1.412       .  A
C1749      C1750   1.403       .  A
C1749      F1752   1.357       .  S
C1750      F1754   1.358       .  S
C1757      C1758   1.404       .  A
C1757      C1762   1.402       .  A
C1757      F1775   1.358       .  S
C1758      C1759   1.404       .  A
C1758      C1763   1.482       .  S
C1759      C1760   1.397       .  A
C1759      F1764   1.358       .  S
C1760      C1761   1.410       .  A
C1760      F1776   1.357       .  S
C1761      C1762   1.410       .  A
C1762      F1765   1.357       .  S
C1763      C1766   1.405       .  A
C1763      C1770   1.403       .  A
C1766      C1767   1.403       .  A
C1766      F1771   1.358       .  S
C1767      C1768   1.409       .  A
C1767      F1773   1.357       .  S
C1768      C1769   1.411       .  A
C1769      C1770   1.396       .  A
C1769      F1772   1.357       .  S
C1770      F1774   1.358       .  S
C1777      C1778   1.403       .  A
C1777      C1782   1.396       .  A
C1777      F1795   1.358       .  S
C1778      C1779   1.405       .  A
C1778      C1783   1.479       .  S
C1779      C1780   1.400       .  A
C1779      F1784   1.358       .  S
C1780      C1781   1.409       .  A
C1780      F1796   1.357       .  S
C1781      C1782   1.408       .  A
C1782      F1785   1.357       .  S
C1783      C1786   1.405       .  A
C1783      C1790   1.405       .  A
C1786      C1787   1.396       .  A
C1786      F1791   1.358       .  S
C1787      C1788   1.407       .  A
C1787      F1793   1.358       .  S
C1788      C1789   1.408       .  A
C1789      C1790   1.399       .  A
C1789      F1792   1.358       .  S
C1790      F1794   1.358       .  S
C1797      C1798   1.402       .  A
C1797      C1802   1.394       .  A
C1797      F1815   1.358       .  S
C1798      C1799   1.406       .  A
C1798      C1803   1.478       .  S
C1799      C1800   1.403       .  A
C1799      F1804   1.358       .  S
C1800      C1801   1.407       .  A
C1800      F1816   1.357       .  S
C1801      C1802   1.408       .  A
C1802      F1805   1.358       .  S
C1803      C1806   1.402       .  A
C1803      C1810   1.405       .  A
C1806      C1807   1.398       .  A
C1806      F1811   1.358       .  S
C1807      C1808   1.410       .  A
C1807      F1813   1.358       .  S
C1808      C1809   1.407       .  A
C1809      C1810   1.399       .  A
C1809      F1812   1.357       .  S
C1810      F1814   1.358       .  S
C1817      C1818   1.409       .  A
C1817      C1822   1.400       .  A
C1817      F1835   1.358       .  S
C1818      C1819   1.406       .  A
C1818      C1823   1.485   1_655  S
C1819      C1820   1.397       .  A
C1819      F1824   1.358   1_655  S
C1820      C1821   1.407       .  A
C1820      F1836   1.358       .  S
C1821      C1822   1.405       .  A
C1822      F1825   1.358       .  S
C1823      C1826   1.407       .  A
C1823      C1830   1.409       .  A
C1826      C1827   1.399       .  A
C1826      F1831   1.358   1_455  S
C1827      C1828   1.405       .  A
C1827      F1833   1.358       .  S
C1828      C1829   1.404       .  A
C1829      C1830   1.399       .  A
C1829      F1832   1.358       .  S
C1830      F1834   1.358       .  S
C1837      C1838   1.404   1_655  A
C1837      C1842   1.402       .  A
C1837      F1855   1.358       .  S
C1838      C1839   1.404       .  A
C1838      C1843   1.485       .  S
C1839      C1840   1.401       .  A
C1839      F1844   1.358       .  S
C1840      C1841   1.409   1_455  A
C1840      F1856   1.357       .  S
C1841      C1842   1.411       .  A
C1842      F1845   1.357       .  S
C1843      C1846   1.404       .  A
C1843      C1850   1.404       .  A
C1846      C1847   1.402       .  A
C1846      F1851   1.358       .  S
C1847      C1848   1.411       .  A
C1847      F1853   1.357       .  S
C1848      C1849   1.412       .  A
C1849      C1850   1.401       .  A
C1849      F1852   1.357       .  S
C1850      F1854   1.358       .  S
C1857      C1858   1.405       .  A
C1857      C1862   1.401       .  A
C1857      F1875   1.358       .  S
C1858      C1859   1.404       .  A
C1858      C1863   1.482       .  S
C1859      C1860   1.399       .  A
C1859      F1864   1.358       .  S
C1860      C1861   1.409       .  A
C1860      F1876   1.357       .  S
C1861      C1862   1.409       .  A
C1862      F1865   1.358       .  S
C1863      C1866   1.405       .  A
C1863      C1870   1.405       .  A
C1866      C1867   1.402       .  A
C1866      F1871   1.358       .  S
C1867      C1868   1.408       .  A
C1867      F1873   1.358       .  S
C1868      C1869   1.408       .  A
C1869      C1870   1.399       .  A
C1869      F1872   1.358       .  S
C1870      F1874   1.358       .  S
C1877      C1878   1.404       .  A
C1877      C1882   1.399       .  A
C1877      F1895   1.358       .  S
C1878      C1879   1.404       .  A
C1878      C1883   1.480       .  S
C1879      C1880   1.398       .  A
C1879      F1884   1.358       .  S
C1880      C1881   1.408       .  A
C1880      F1896   1.358       .  S
C1881      C1882   1.408       .  A
C1882      F1885   1.357       .  S
C1883      C1886   1.404       .  A
C1883      C1890   1.404       .  A
C1886      C1887   1.399       .  A
C1886      F1891   1.358       .  S
C1887      C1888   1.408       .  A
C1887      F1893   1.357       .  S
C1888      C1889   1.408       .  A
C1889      C1890   1.400       .  A
C1889      F1892   1.357       .  S
C1890      F1894   1.358       .  S
C1897      C1898   1.404       .  A
C1897      C1902   1.398       .  A
C1897      F1915   1.358   1_556  S
C1898      C1899   1.406       .  A
C1898      C1903   1.480   1_556  S
C1899      C1900   1.401       .  A
C1899      F1904   1.358       .  S
C1900      C1901   1.406       .  A
C1900      F1916   1.358       .  S
C1901      C1902   1.407       .  A
C1902      F1905   1.358       .  S
C1903      C1906   1.406       .  A
C1903      C1910   1.404       .  A
C1906      C1907   1.400       .  A
C1906      F1911   1.358       .  S
C1907      C1908   1.407       .  A
C1907      F1913   1.358       .  S
C1908      C1909   1.408       .  A
C1909      C1910   1.399       .  A
C1909      F1912   1.358       .  S
C1910      F1914   1.358       .  S
C1917      C1918   1.403   1_556  A
C1917      C1922   1.400       .  A
C1917      F1935   1.358       .  S
C1918      C1919   1.404       .  A
C1918      C1923   1.480       .  S
C1919      C1920   1.400       .  A
C1919      F1924   1.358       .  S
C1920      C1921   1.410   1_554  A
C1920      F1936   1.357   1_455  S
C1921      C1922   1.411       .  A
C1922      F1925   1.357       .  S
C1923      C1926   1.405       .  A
C1923      C1930   1.403       .  A
C1926      C1927   1.402       .  A
C1926      F1931   1.358       .  S
C1927      C1928   1.409       .  A
C1927      F1933   1.357       .  S
C1928      C1929   1.408       .  A
C1929      C1930   1.398       .  A
C1929      F1932   1.357       .  S
C1930      F1934   1.358       .  S
C1937      C1938   1.402       .  A
C1937      C1942   1.396       .  A
C1937      F1955   1.358       .  S
C1938      C1939   1.403       .  A
C1938      C1943   1.477       .  S
C1939      C1940   1.403       .  A
C1939      F1944   1.358       .  S
C1940      C1941   1.411       .  A
C1940      F1956   1.357       .  S
C1941      C1942   1.409       .  A
C1942      F1945   1.357       .  S
C1943      C1946   1.402       .  A
C1943      C1950   1.403       .  A
C1946      C1947   1.397       .  A
C1946      F1951   1.358       .  S
C1947      C1948   1.410       .  A
C1947      F1953   1.358       .  S
C1948      C1949   1.410       .  A
C1949      C1950   1.401       .  A
C1949      F1952   1.357       .  S
C1950      F1954   1.358       .  S
C1957      C1958   1.402   1_455  A
C1957      C1962   1.399       .  A
C1957      F1975   1.358       .  S
C1958      C1959   1.401   1_554  A
C1958      C1963   1.475       .  S
C1959      C1960   1.399       .  A
C1959      F1964   1.358       .  S
C1960      C1961   1.410   1_655  A
C1960      F1976   1.357       .  S
C1961      C1962   1.410   1_556  A
C1962      F1965   1.357       .  S
C1963      C1966   1.401       .  A
C1963      C1970   1.403       .  A
C1966      C1967   1.397       .  A
C1966      F1971   1.358   1_654  S
C1967      C1968   1.409       .  A
C1967      F1973   1.357   1_554  S
C1968      C1969   1.410       .  A
C1969      C1970   1.400       .  A
C1969      F1972   1.357       .  S
C1970      F1974   1.358       .  S
C1977      C1978   1.407   1_655  A
C1977      C1982   1.399       .  A
C1977      F1995   1.358       .  S
C1978      C1979   1.408       .  A
C1978      C1983   1.485       .  S
C1979      C1980   1.398       .  A
C1979      F1984   1.358       .  S
C1980      C1981   1.404   1_455  A
C1980      F1996   1.358       .  S
C1981      C1982   1.405       .  A
C1982      F1985   1.358       .  S
C1983      C1986   1.409       .  A
C1983      C1990   1.407       .  A
C1986      C1987   1.399       .  A
C1986      F1991   1.358   1_455  S
C1987      C1988   1.404       .  A
C1987      F1993   1.358       .  S
C1988      C1989   1.405       .  A
C1989      C1990   1.398       .  A
C1989      F1992   1.358       .  S
C1990      F1994   1.358       .  S
C1997      C1998   1.406       .  A
C1997      C2002   1.399       .  A
C1997      F2015   1.358       .  S
C1998      C1999   1.404       .  A
C1998      C2003   1.479       .  S
C1999      C2000   1.398       .  A
C1999      F2004   1.358       .  S
C2000      C2001   1.408       .  A
C2000      F2016   1.358       .  S
C2001      C2002   1.407       .  A
C2002      F2005   1.357       .  S
C2003      C2006   1.405       .  A
C2003      C2010   1.403       .  A
C2006      C2007   1.401       .  A
C2006      F2011   1.358       .  S
C2007      C2008   1.408       .  A
C2007      F2013   1.357       .  S
C2008      C2009   1.409       .  A
C2009      C2010   1.395       .  A
C2009      F2012   1.357       .  S
C2010      F2014   1.358       .  S
C2017      C2018   1.404       .  A
C2017      C2022   1.402       .  A
C2017      F2035   1.358       .  S
C2018      C2019   1.403       .  A
C2018      C2023   1.481   1_556  S
C2019      C2020   1.398       .  A
C2019      F2024   1.358   1_556  S
C2020      C2021   1.409       .  A
C2020      F2036   1.357       .  S
C2021      C2022   1.411       .  A
C2022      F2025   1.357       .  S
C2023      C2026   1.404       .  A
C2023      C2030   1.402   1_554  A
C2026      C2027   1.403       .  A
C2026      F2031   1.358       .  S
C2027      C2028   1.412       .  A
C2027      F2033   1.357       .  S
C2028      C2029   1.412       .  A
C2029      C2030   1.397   1_554  A
C2029      F2032   1.356       .  S
C2030      F2034   1.358       .  S
C2037      C2038   1.410       .  A
C2037      C2042   1.400       .  A
C2037      F2055   1.358       .  S
C2038      C2039   1.408       .  A
C2038      C2043   1.488       .  S
C2039      C2040   1.399       .  A
C2039      F2044   1.358       .  S
C2040      C2041   1.405       .  A
C2040      F2056   1.358       .  S
C2041      C2042   1.404       .  A
C2042      F2045   1.358       .  S
C2043      C2046   1.408       .  A
C2043      C2050   1.410       .  A
C2046      C2047   1.399       .  A
C2046      F2051   1.358       .  S
C2047      C2048   1.406       .  A
C2047      F2053   1.358       .  S
C2048      C2049   1.404       .  A
C2049      C2050   1.399       .  A
C2049      F2052   1.358       .  S
C2050      F2054   1.358       .  S
C2057      C2058   1.404       .  A
C2057      C2062   1.398       .  A
C2057      F2075   1.358       .  S
C2058      C2059   1.404       .  A
C2058      C2063   1.477       .  S
C2059      C2060   1.398       .  A
C2059      F2064   1.358       .  S
C2060      C2061   1.407       .  A
C2060      F2076   1.358       .  S
C2061      C2062   1.408       .  A
C2062      F2065   1.357       .  S
C2063      C2066   1.403       .  A
C2063      C2070   1.404       .  A
C2066      C2067   1.396       .  A
C2066      F2071   1.358       .  S
C2067      C2068   1.408       .  A
C2067      F2073   1.358       .  S
C2068      C2069   1.408       .  A
C2069      C2070   1.399       .  A
C2069      F2072   1.357       .  S
C2070      F2074   1.358       .  S
C2077      C2078   1.403       .  A
C2077      C2082   1.401       .  A
C2077      F2095   1.358       .  S
C2078      C2079   1.401       .  A
C2078      C2083   1.475       .  S
C2079      C2080   1.394       .  A
C2079      F2084   1.359       .  S
C2080      C2081   1.412       .  A
C2080      F2096   1.357       .  S
C2081      C2082   1.411       .  A
C2082      F2085   1.356       .  S
C2083      C2086   1.405       .  A
C2083      C2090   1.402       .  A
C2086      C2087   1.398       .  A
C2086      F2091   1.358       .  S
C2087      C2088   1.406       .  A
C2087      F2093   1.357       .  S
C2088      C2089   1.408       .  A
C2089      C2090   1.397       .  A
C2089      F2092   1.358       .  S
C2090      F2094   1.358       .  S
C2097      C2098   1.403       .  A
C2097      C2102   1.398       .  A
C2097      F2115   1.358       .  S
C2098      C2099   1.403       .  A
C2098      C2103   1.477       .  S
C2099      C2100   1.398       .  A
C2099      F2104   1.358       .  S
C2100      C2101   1.409       .  A
C2100      F2116   1.357       .  S
C2101      C2102   1.410       .  A
C2102      F2105   1.357       .  S
C2103      C2106   1.403       .  A
C2103      C2110   1.403       .  A
C2106      C2107   1.400       .  A
C2106      F2111   1.358       .  S
C2107      C2108   1.411       .  A
C2107      F2113   1.357       .  S
C2108      C2109   1.408       .  A
C2109      C2110   1.397       .  A
C2109      F2112   1.357       .  S
C2110      F2114   1.358       .  S
C2117      C2118   1.402       .  A
C2117      C2122   1.396       .  A
C2117      F2135   1.358       .  S
C2118      C2119   1.403       .  A
C2118      C2123   1.476       .  S
C2119      C2120   1.400       .  A
C2119      F2124   1.358       .  S
C2120      C2121   1.410       .  A
C2120      F2136   1.357       .  S
C2121      C2122   1.410       .  A
C2122      F2125   1.357       .  S
C2123      C2126   1.403       .  A
C2123      C2130   1.405       .  A
C2126      C2127   1.397       .  A
C2126      F2131   1.358       .  S
C2127      C2128   1.407       .  A
C2127      F2133   1.358       .  S
C2128      C2129   1.407       .  A
C2129      C2130   1.400       .  A
C2129      F2132   1.357       .  S
C2130      F2134   1.358       .  S
C2137      C2138   1.405   1_556  A
C2137      C2142   1.398       .  A
C2137      F2155   1.358       .  S
C2138      C2139   1.403       .  A
C2138      C2143   1.475       .  S
C2139      C2140   1.396   1_554  A
C2139      F2144   1.358       .  S
C2140      C2141   1.406       .  A
C2140      F2156   1.358       .  S
C2141      C2142   1.405       .  A
C2142      F2145   1.358       .  S
C2143      C2146   1.403       .  A
C2143      C2150   1.406       .  A
C2146      C2147   1.396       .  A
C2146      F2151   1.358       .  S
C2147      C2148   1.406       .  A
C2147      F2153   1.358       .  S
C2148      C2149   1.405       .  A
C2149      C2150   1.398       .  A
C2149      F2152   1.358       .  S
C2150      F2154   1.358       .  S
C2157      C2158   1.403   1_556  A
C2157      C2162   1.400       .  A
C2157      F2175   1.358       .  S
C2158      C2159   1.404       .  A
C2158      C2163   1.483   1_554  S
C2159      C2160   1.402       .  A
C2159      F2164   1.358       .  S
C2160      C2161   1.411       .  A
C2160      F2176   1.357       .  S
C2161      C2162   1.411   1_554  A
C2162      F2165   1.357       .  S
C2163      C2166   1.403       .  A
C2163      C2170   1.404       .  A
C2166      C2167   1.399       .  A
C2166      F2171   1.358       .  S
C2167      C2168   1.411       .  A
C2167      F2173   1.357       .  S
C2168      C2169   1.411       .  A
C2169      C2170   1.401       .  A
C2169      F2172   1.357       .  S
C2170      F2174   1.358   1_556  S
C2177      C2178   1.408       .  A
C2177      C2182   1.402       .  A
C2177      F2195   1.358       .  S
C2178      C2179   1.406       .  A
C2178      C2183   1.488   1_556  S
C2179      C2180   1.399       .  A
C2179      F2184   1.358   1_556  S
C2180      C2181   1.408       .  A
C2180      F2196   1.357       .  S
C2181      C2182   1.408       .  A
C2182      F2185   1.357       .  S
C2183      C2186   1.406   1_554  A
C2183      C2190   1.408       .  A
C2186      C2187   1.400   1_556  A
C2186      F2191   1.358       .  S
C2187      C2188   1.409       .  A
C2187      F2193   1.358   1_554  S
C2188      C2189   1.407       .  A
C2189      C2190   1.401       .  A
C2189      F2192   1.357       .  S
C2190      F2194   1.358       .  S
C2197      C2198   1.404       .  A
C2197      C2202   1.401   1_556  A
C2197      F2215   1.358       .  S
C2198      C2199   1.406       .  A
C2198      C2203   1.485       .  S
C2199      C2200   1.401       .  A
C2199      F2204   1.358       .  S
C2200      C2201   1.409   1_556  A
C2200      F2216   1.357       .  S
C2201      C2202   1.411       .  A
C2202      F2205   1.357       .  S
C2203      C2206   1.407       .  A
C2203      C2210   1.404       .  A
C2206      C2207   1.403       .  A
C2206      F2211   1.358   1_556  S
C2207      C2208   1.409       .  A
C2207      F2213   1.358       .  S
C2208      C2209   1.409       .  A
C2209      C2210   1.398       .  A
C2209      F2212   1.357       .  S
C2210      F2214   1.358       .  S
C2217      C2218   1.409   1_554  A
C2217      C2222   1.400   1_554  A
C2217      F2235   1.358       .  S
C2218      C2219   1.406       .  A
C2218      C2223   1.486   1_556  S
C2219      C2220   1.398       .  A
C2219      F2224   1.358       .  S
C2220      C2221   1.409       .  A
C2220      F2236   1.358       .  S
C2221      C2222   1.406       .  A
C2222      F2225   1.357   1_556  S
C2223      C2226   1.407       .  A
C2223      C2230   1.409   1_554  A
C2226      C2227   1.398       .  A
C2226      F2231   1.358       .  S
C2227      C2228   1.405       .  A
C2227      F2233   1.358       .  S
C2228      C2229   1.404       .  A
C2229      C2230   1.400   1_554  A
C2229      F2232   1.358   1_554  S
C2230      F2234   1.358       .  S
C2237      C2238   1.404       .  A
C2237      C2242   1.399       .  A
C2237      F2255   1.358       .  S
C2238      C2239   1.403       .  A
C2238      C2243   1.478       .  S
C2239      C2240   1.397       .  A
C2239      F2244   1.358       .  S
C2240      C2241   1.408       .  A
C2240      F2256   1.357       .  S
C2241      C2242   1.409       .  A
C2242      F2245   1.357       .  S
C2243      C2246   1.404       .  A
C2243      C2250   1.403       .  A
C2246      C2247   1.399       .  A
C2246      F2251   1.358       .  S
C2247      C2248   1.409       .  A
C2247      F2253   1.357       .  S
C2248      C2249   1.411       .  A
C2249      C2250   1.398       .  A
C2249      F2252   1.357       .  S
C2250      F2254   1.358       .  S
C2257      C2258   1.406       .  A
C2257      C2262   1.402       .  A
C2257      F2275   1.358       .  S
C2258      C2259   1.405       .  A
C2258      C2263   1.485       .  S
C2259      C2260   1.400       .  A
C2259      F2264   1.358       .  S
C2260      C2261   1.409       .  A
C2260      F2276   1.358       .  S
C2261      C2262   1.408       .  A
C2262      F2265   1.357       .  S
C2263      C2266   1.405       .  A
C2263      C2270   1.406       .  A
C2266      C2267   1.400       .  A
C2266      F2271   1.358       .  S
C2267      C2268   1.408       .  A
C2267      F2273   1.358       .  S
C2268      C2269   1.409       .  A
C2269      C2270   1.402       .  A
C2269      F2272   1.357       .  S
C2270      F2274   1.358       .  S
C2277      C2278   1.406       .  A
C2277      C2282   1.404       .  A
C2277      F2295   1.357       .  S
C2278      C2279   1.403       .  A
C2278      C2283   1.480       .  S
C2279      C2280   1.396       .  A
C2279      F2284   1.358       .  S
C2280      C2281   1.408       .  A
C2280      F2296   1.358       .  S
C2281      C2282   1.407       .  A
C2282      F2285   1.357       .  S
C2283      C2286   1.405       .  A
C2283      C2290   1.403       .  A
C2286      C2287   1.400       .  A
C2286      F2291   1.358       .  S
C2287      C2288   1.406       .  A
C2287      F2293   1.357       .  S
C2288      C2289   1.409       .  A
C2289      C2290   1.401       .  A
C2289      F2292   1.358       .  S
C2290      F2294   1.358       .  S
C2297      C2298   1.405       .  A
C2297      C2302   1.396       .  A
C2297      F2315   1.358       .  S
C2298      C2299   1.407       .  A
C2298      C2303   1.484       .  S
C2299      C2300   1.401       .  A
C2299      F2304   1.358       .  S
C2300      C2301   1.407       .  A
C2300      F2316   1.357       .  S
C2301      C2302   1.408       .  A
C2302      F2305   1.358       .  S
C2303      C2306   1.405       .  A
C2303      C2310   1.406       .  A
C2306      C2307   1.395       .  A
C2306      F2311   1.358       .  S
C2307      C2308   1.408       .  A
C2307      F2313   1.357       .  S
C2308      C2309   1.409       .  A
C2309      C2310   1.401       .  A
C2309      F2312   1.357   1_545  S
C2310      F2314   1.358       .  S
C2317      C2318   1.404       .  A
C2317      C2322   1.400       .  A
C2317      F2335   1.358       .  S
C2318      C2319   1.405       .  A
C2318      C2323   1.482       .  S
C2319      C2320   1.399       .  A
C2319      F2324   1.358       .  S
C2320      C2321   1.409       .  A
C2320      F2336   1.357   1_545  S
C2321      C2322   1.410       .  A
C2322      F2325   1.357       .  S
C2323      C2326   1.406       .  A
C2323      C2330   1.404       .  A
C2326      C2327   1.401       .  A
C2326      F2331   1.358       .  S
C2327      C2328   1.409       .  A
C2327      F2333   1.357       .  S
C2328      C2329   1.409       .  A
C2329      C2330   1.397       .  A
C2329      F2332   1.357       .  S
C2330      F2334   1.358       .  S
C2337      C2338   1.407       .  A
C2337      C2342   1.403       .  A
C2337      F2355   1.358       .  S
C2338      C2339   1.406       .  A
C2338      C2343   1.485       .  S
C2339      C2340   1.396       .  A
C2339      F2344   1.358       .  S
C2340      C2341   1.407       .  A
C2340      F2356   1.358       .  S
C2341      C2342   1.408       .  A
C2342      F2345   1.357       .  S
C2343      C2346   1.405       .  A
C2343      C2350   1.403       .  A
C2346      C2347   1.403       .  A
C2346      F2351   1.358       .  S
C2347      C2348   1.411       .  A
C2347      F2353   1.357       .  S
C2348      C2349   1.412       .  A
C2349      C2350   1.396       .  A
C2349      F2352   1.356       .  S
C2350      F2354   1.358       .  S
C2357      C2358   1.407       .  A
C2357      C2362   1.403       .  A
C2357      F2375   1.358       .  S
C2358      C2359   1.405       .  A
C2358      C2363   1.486       .  S
C2359      C2360   1.399       .  A
C2359      F2364   1.358       .  S
C2360      C2361   1.408       .  A
C2360      F2376   1.357   1_545  S
C2361      C2362   1.409       .  A
C2362      F2365   1.358       .  S
C2363      C2366   1.405       .  A
C2363      C2370   1.406       .  A
C2366      C2367   1.401       .  A
C2366      F2371   1.358       .  S
C2367      C2368   1.410       .  A
C2367      F2373   1.357       .  S
C2368      C2369   1.410       .  A
C2369      C2370   1.401       .  A
C2369      F2372   1.357       .  S
C2370      F2374   1.358   1_545  S
C2377      C2378   1.409       .  A
C2377      C2382   1.402       .  A
C2377      F2395   1.358       .  S
C2378      C2379   1.404       .  A
C2378      C2383   1.485       .  S
C2379      C2380   1.396       .  A
C2379      F2384   1.358       .  S
C2380      C2381   1.408       .  A
C2380      F2396   1.358       .  S
C2381      C2382   1.405       .  A
C2382      F2385   1.358       .  S
C2383      C2386   1.406       .  A
C2383      C2390   1.409       .  A
C2386      C2387   1.399       .  A
C2386      F2391   1.358   1_565  S
C2387      C2388   1.405       .  A
C2387      F2393   1.358   1_565  S
C2388      C2389   1.403       .  A
C2389      C2390   1.399       .  A
C2389      F2392   1.358       .  S
C2390      F2394   1.358       .  S
C2397      C2398   1.404       .  A
C2397      C2402   1.400       .  A
C2397      F2415   1.358       .  S
C2398      C2399   1.405       .  A
C2398      C2403   1.483       .  S
C2399      C2400   1.399       .  A
C2399      F2404   1.358       .  S
C2400      C2401   1.409       .  A
C2400      F2416   1.357       .  S
C2401      C2402   1.410       .  A
C2402      F2405   1.357       .  S
C2403      C2406   1.405       .  A
C2403      C2410   1.404       .  A
C2406      C2407   1.401       .  A
C2406      F2411   1.358       .  S
C2407      C2408   1.409       .  A
C2407      F2413   1.357       .  S
C2408      C2409   1.409       .  A
C2409      C2410   1.398       .  A
C2409      F2412   1.357       .  S
C2410      F2414   1.358       .  S
C2417      C2418   1.404       .  A
C2417      C2422   1.402       .  A
C2417      F2435   1.358       .  S
C2418      C2419   1.402       .  A
C2418      C2423   1.477       .  S
C2419      C2420   1.396       .  A
C2419      F2424   1.358       .  S
C2420      C2421   1.409       .  A
C2420      F2436   1.358       .  S
C2421      C2422   1.410       .  A
C2422      F2425   1.357       .  S
C2423      C2426   1.406       .  A
C2423      C2430   1.402       .  A
C2426      C2427   1.401       .  A
C2426      F2431   1.358       .  S
C2427      C2428   1.406       .  A
C2427      F2433   1.358       .  S
C2428      C2429   1.407       .  A
C2429      C2430   1.397       .  A
C2429      F2432   1.358       .  S
C2430      F2434   1.358       .  S
C2437      C2438   1.405       .  A
C2437      C2442   1.399       .  A
C2437      F2455   1.358       .  S
C2438      C2439   1.405       .  A
C2438      C2443   1.481       .  S
C2439      C2440   1.400       .  A
C2439      F2444   1.358       .  S
C2440      C2441   1.409       .  A
C2440      F2456   1.358       .  S
C2441      C2442   1.408       .  A
C2442      F2445   1.357       .  S
C2443      C2446   1.404       .  A
C2443      C2450   1.404       .  A
C2446      C2447   1.398       .  A
C2446      F2451   1.358       .  S
C2447      C2448   1.409       .  A
C2447      F2453   1.357       .  S
C2448      C2449   1.412       .  A
C2449      C2450   1.400       .  A
C2449      F2452   1.357       .  S
C2450      F2454   1.358       .  S
C2457      C2458   1.405       .  A
C2457      C2462   1.401       .  A
C2457      F2475   1.358       .  S
C2458      C2459   1.403       .  A
C2458      C2463   1.479       .  S
C2459      C2460   1.396       .  A
C2459      F2464   1.358       .  S
C2460      C2461   1.408       .  A
C2460      F2476   1.358       .  S
C2461      C2462   1.409       .  A
C2462      F2465   1.357       .  S
C2463      C2466   1.404       .  A
C2463      C2470   1.403       .  A
C2466      C2467   1.400       .  A
C2466      F2471   1.358       .  S
C2467      C2468   1.409       .  A
C2467      F2473   1.357       .  S
C2468      C2469   1.411       .  A
C2469      C2470   1.397       .  A
C2469      F2472   1.357       .  S
C2470      F2474   1.358       .  S
C2477      C2478   1.405       .  A
C2477      C2482   1.401       .  A
C2477      F2495   1.358       .  S
C2478      C2479   1.403       .  A
C2478      C2483   1.479       .  S
C2479      C2480   1.398       .  A
C2479      F2484   1.358       .  S
C2480      C2481   1.410       .  A
C2480      F2496   1.357       .  S
C2481      C2482   1.408       .  A
C2482      F2485   1.357   1_545  S
C2483      C2486   1.405       .  A
C2483      C2490   1.403       .  A
C2486      C2487   1.401       .  A
C2486      F2491   1.358       .  S
C2487      C2488   1.408       .  A
C2487      F2493   1.357       .  S
C2488      C2489   1.408       .  A
C2489      C2490   1.397       .  A
C2489      F2492   1.358       .  S
C2490      F2494   1.358       .  S
C2497      C2498   1.404       .  A
C2497      C2502   1.401       .  A
C2497      F2515   1.358       .  S
C2498      C2499   1.405       .  A
C2498      C2503   1.486       .  S
C2499      C2500   1.400       .  A
C2499      F2504   1.358       .  S
C2500      C2501   1.411       .  A
C2500      F2516   1.357       .  S
C2501      C2502   1.412       .  A
C2502      F2505   1.357       .  S
C2503      C2506   1.405       .  A
C2503      C2510   1.405       .  A
C2506      C2507   1.401       .  A
C2506      F2511   1.358       .  S
C2507      C2508   1.410       .  A
C2507      F2513   1.357       .  S
C2508      C2509   1.410       .  A
C2509      C2510   1.400       .  A
C2509      F2512   1.357       .  S
C2510      F2514   1.358       .  S
C2517      C2518   1.406       .  A
C2517      C2522   1.402       .  A
C2517      F2535   1.358       .  S
C2518      C2519   1.405       .  A
C2518      C2523   1.485       .  S
C2519      C2520   1.398       .  A
C2519      F2524   1.358       .  S
C2520      C2521   1.409       .  A
C2520      F2536   1.357       .  S
C2521      C2522   1.411       .  A
C2522      F2525   1.357       .  S
C2523      C2526   1.406       .  A
C2523      C2530   1.406       .  A
C2526      C2527   1.401       .  A
C2526      F2531   1.358       .  S
C2527      C2528   1.409       .  A
C2527      F2533   1.357       .  S
C2528      C2529   1.409       .  A
C2529      C2530   1.399       .  A
C2529      F2532   1.357       .  S
C2530      F2534   1.358       .  S
C2537      C2538   1.406       .  A
C2537      C2542   1.400       .  A
C2537      F2555   1.358       .  S
C2538      C2539   1.405       .  A
C2538      C2543   1.480       .  S
C2539      C2540   1.397       .  A
C2539      F2544   1.358       .  S
C2540      C2541   1.407       .  A
C2540      F2556   1.358       .  S
C2541      C2542   1.405       .  A
C2542      F2545   1.358       .  S
C2543      C2546   1.404       .  A
C2543      C2550   1.404       .  A
C2546      C2547   1.398       .  A
C2546      F2551   1.358       .  S
C2547      C2548   1.409       .  A
C2547      F2553   1.357       .  S
C2548      C2549   1.409       .  A
C2549      C2550   1.398       .  A
C2549      F2552   1.357       .  S
C2550      F2554   1.358       .  S
C2557      C2558   1.405       .  A
C2557      C2562   1.400       .  A
C2557      F2575   1.358       .  S
C2558      C2559   1.405       .  A
C2558      C2563   1.484       .  S
C2559      C2560   1.400       .  A
C2559      F2564   1.358       .  S
C2560      C2561   1.409       .  A
C2560      F2576   1.357       .  S
C2561      C2562   1.408       .  A
C2562      F2565   1.357       .  S
C2563      C2566   1.405       .  A
C2563      C2570   1.405       .  A
C2566      C2567   1.400       .  A
C2566      F2571   1.358       .  S
C2567      C2568   1.409       .  A
C2567      F2573   1.357       .  S
C2568      C2569   1.409       .  A
C2569      C2570   1.400       .  A
C2569      F2572   1.357       .  S
C2570      F2574   1.358       .  S
C2577      C2578   1.404       .  A
C2577      C2582   1.401       .  A
C2577      F2595   1.358       .  S
C2578      C2579   1.402       .  A
C2578      C2583   1.480       .  S
C2579      C2580   1.398       .  A
C2579      F2584   1.358       .  S
C2580      C2581   1.413       .  A
C2580      F2596   1.357       .  S
C2581      C2582   1.410       .  A
C2582      F2585   1.357       .  S
C2583      C2586   1.403       .  A
C2583      C2590   1.403       .  A
C2586      C2587   1.401       .  A
C2586      F2591   1.358       .  S
C2587      C2588   1.412       .  A
C2587      F2593   1.357       .  S
C2588      C2589   1.410       .  A
C2589      C2590   1.399       .  A
C2589      F2592   1.357       .  S
C2590      F2594   1.358       .  S
C2597      C2598   1.409       .  A
C2597      C2602   1.400       .  A
C2597      F2615   1.358       .  S
C2598      C2599   1.407       .  A
C2598      C2603   1.489       .  S
C2599      C2600   1.399       .  A
C2599      F2604   1.358       .  S
C2600      C2601   1.406       .  A
C2600      F2616   1.358       .  S
C2601      C2602   1.405       .  A
C2602      F2605   1.358       .  S
C2603      C2606   1.406       .  A
C2603      C2610   1.409       .  A
C2606      C2607   1.399       .  A
C2606      F2611   1.358       .  S
C2607      C2608   1.408       .  A
C2607      F2613   1.358       .  S
C2608      C2609   1.405       .  A
C2609      C2610   1.400       .  A
C2609      F2612   1.357       .  S
C2610      F2614   1.358       .  S
C2617      C2618   1.403       .  A
C2617      C2622   1.393       .  A
C2617      F2635   1.358       .  S
C2618      C2619   1.403       .  A
C2618      C2623   1.477       .  S
C2619      C2620   1.398       .  A
C2619      F2624   1.358       .  S
C2620      C2621   1.412       .  A
C2620      F2636   1.356       .  S
C2621      C2622   1.411       .  A
C2622      F2625   1.356       .  S
C2623      C2626   1.404       .  A
C2623      C2630   1.404       .  A
C2626      C2627   1.395       .  A
C2626      F2631   1.358       .  S
C2627      C2628   1.408       .  A
C2627      F2633   1.357       .  S
C2628      C2629   1.408       .  A
C2629      C2630   1.398       .  A
C2629      F2632   1.357       .  S
C2630      F2634   1.358       .  S
C2637      C2638   1.403   1_455  A
C2637      C2642   1.398   1_455  A
C2637      F2655   1.358       .  S
C2638      C2639   1.405       .  A
C2638      C2643   1.480   1_655  S
C2639      C2640   1.401       .  A
C2639      F2644   1.358       .  S
C2640      C2641   1.408       .  A
C2640      F2656   1.357       .  S
C2641      C2642   1.409       .  A
C2642      F2645   1.358   1_655  S
C2643      C2646   1.404       .  A
C2643      C2650   1.404       .  A
C2646      C2647   1.399       .  A
C2646      F2651   1.358       .  S
C2647      C2648   1.410       .  A
C2647      F2653   1.357       .  S
C2648      C2649   1.408       .  A
C2649      C2650   1.399       .  A
C2649      F2652   1.357       .  S
C2650      F2654   1.358   1_455  S
C2657      C2658   1.404       .  A
C2657      C2662   1.398       .  A
C2657      F2675   1.358       .  S
C2658      C2659   1.405       .  A
C2658      C2663   1.482       .  S
C2659      C2660   1.400       .  A
C2659      F2664   1.358   1_455  S
C2660      C2661   1.410       .  A
C2660      F2676   1.357       .  S
C2661      C2662   1.408       .  A
C2662      F2665   1.357       .  S
C2663      C2666   1.404       .  A
C2663      C2670   1.404   1_455  A
C2666      C2667   1.398       .  A
C2666      F2671   1.358       .  S
C2667      C2668   1.408   1_455  A
C2667      F2673   1.357       .  S
C2668      C2669   1.410       .  A
C2669      C2670   1.400       .  A
C2669      F2672   1.357       .  S
C2670      F2674   1.358       .  S
C2677      C2678   1.401       .  A
C2677      C2682   1.395       .  A
C2677      F2695   1.358       .  S
C2678      C2679   1.402       .  A
C2678      C2683   1.478       .  S
C2679      C2680   1.402       .  A
C2679      F2684   1.358       .  S
C2680      C2681   1.414       .  A
C2680      F2696   1.356       .  S
C2681      C2682   1.413       .  A
C2682      F2685   1.356       .  S
C2683      C2686   1.402       .  A
C2683      C2690   1.404       .  A
C2686      C2687   1.395       .  A
C2686      F2691   1.358       .  S
C2687      C2688   1.410       .  A
C2687      F2693   1.357       .  S
C2688      C2689   1.409       .  A
C2689      C2690   1.402       .  A
C2689      F2692   1.357       .  S
C2690      F2694   1.358       .  S
C2697      C2698   1.406   1_455  A
C2697      C2702   1.398   1_455  A
C2697      F2715   1.358       .  S
C2698      C2699   1.404       .  A
C2698      C2703   1.479   1_655  S
C2699      C2700   1.398       .  A
C2699      F2704   1.358       .  S
C2700      C2701   1.407       .  A
C2700      F2716   1.358       .  S
C2701      C2702   1.406       .  A
C2702      F2705   1.358   1_655  S
C2703      C2706   1.405       .  A
C2703      C2710   1.406   1_455  A
C2706      C2707   1.397       .  A
C2706      F2711   1.358       .  S
C2707      C2708   1.406       .  A
C2707      F2713   1.358       .  S
C2708      C2709   1.407       .  A
C2709      C2710   1.399   1_455  A
C2709      F2712   1.358   1_455  S
C2710      F2714   1.358       .  S
C2717      C2718   1.403       .  A
C2717      C2722   1.400       .  A
C2717      F2735   1.358       .  S
C2718      C2719   1.403       .  A
C2718      C2723   1.479       .  S
C2719      C2720   1.401       .  A
C2719      F2724   1.358       .  S
C2720      C2721   1.411       .  A
C2720      F2736   1.357       .  S
C2721      C2722   1.411       .  A
C2722      F2725   1.357       .  S
C2723      C2726   1.402       .  A
C2723      C2730   1.403       .  A
C2726      C2727   1.399       .  A
C2726      F2731   1.358       .  S
C2727      C2728   1.411       .  A
C2727      F2733   1.357       .  S
C2728      C2729   1.411       .  A
C2729      C2730   1.402       .  A
C2729      F2732   1.357       .  S
C2730      F2734   1.358       .  S
C2737      C2738   1.405       .  A
C2737      C2742   1.402       .  A
C2737      F2755   1.358       .  S
C2738      C2739   1.401       .  A
C2738      C2743   1.474       .  S
C2739      C2740   1.394       .  A
C2739      F2744   1.358       .  S
C2740      C2741   1.407       .  A
C2740      F2756   1.358       .  S
C2741      C2742   1.408       .  A
C2742      F2745   1.357       .  S
C2743      C2746   1.404       .  A
C2743      C2750   1.402       .  A
C2746      C2747   1.403       .  A
C2746      F2751   1.357       .  S
C2747      C2748   1.407       .  A
C2747      F2753   1.357       .  S
C2748      C2749   1.407       .  A
C2749      C2750   1.394       .  A
C2749      F2752   1.358       .  S
C2750      F2754   1.358       .  S
C2757      C2758   1.404       .  A
C2757      C2762   1.400       .  A
C2757      F2775   1.358       .  S
C2758      C2759   1.405       .  A
C2758      C2763   1.482       .  S
C2759      C2760   1.400       .  A
C2759      F2764   1.358       .  S
C2760      C2761   1.409       .  A
C2760      F2776   1.357       .  S
C2761      C2762   1.409       .  A
C2762      F2765   1.357       .  S
C2763      C2766   1.405       .  A
C2763      C2770   1.404       .  A
C2766      C2767   1.400       .  A
C2766      F2771   1.358       .  S
C2767      C2768   1.408       .  A
C2767      F2773   1.357       .  S
C2768      C2769   1.410       .  A
C2769      C2770   1.400       .  A
C2769      F2772   1.357       .  S
C2770      F2774   1.358       .  S
C2777      C2778   1.403       .  A
C2777      C2782   1.399       .  A
C2777      F2795   1.358       .  S
C2778      C2779   1.404       .  A
C2778      C2783   1.480       .  S
C2779      C2780   1.399       .  A
C2779      F2784   1.358       .  S
C2780      C2781   1.409       .  A
C2780      F2796   1.357       .  S
C2781      C2782   1.411       .  A
C2782      F2785   1.358       .  S
C2783      C2786   1.403       .  A
C2783      C2790   1.404       .  A
C2786      C2787   1.397       .  A
C2786      F2791   1.358       .  S
C2787      C2788   1.409       .  A
C2787      F2793   1.357       .  S
C2788      C2789   1.410       .  A
C2789      C2790   1.402       .  A
C2789      F2792   1.357       .  S
C2790      F2794   1.358       .  S
C2797      C2798   1.408       .  A
C2797      C2802   1.401       .  A
C2797      F2815   1.358       .  S
C2798      C2799   1.405       .  A
C2798      C2803   1.482       .  S
C2799      C2800   1.397       .  A
C2799      F2804   1.358       .  S
C2800      C2801   1.404       .  A
C2800      F2816   1.358       .  S
C2801      C2802   1.405       .  A
C2802      F2805   1.358       .  S
C2803      C2806   1.404       .  A
C2803      C2810   1.407       .  A
C2806      C2807   1.399       .  A
C2806      F2811   1.358       .  S
C2807      C2808   1.409       .  A
C2807      F2813   1.358       .  S
C2808      C2809   1.406       .  A
C2809      C2810   1.399       .  A
C2809      F2812   1.357       .  S
C2810      F2814   1.358       .  S
C2817      C2818   1.404       .  A
C2817      C2822   1.400       .  A
C2817      F2835   1.358       .  S
C2818      C2819   1.406       .  A
C2818      C2823   1.485       .  S
C2819      C2820   1.402       .  A
C2819      F2824   1.358       .  S
C2820      C2821   1.410       .  A
C2820      F2836   1.357       .  S
C2821      C2822   1.410       .  A
C2822      F2825   1.357   1_545  S
C2823      C2826   1.405       .  A
C2823      C2830   1.404       .  A
C2826      C2827   1.402       .  A
C2826      F2831   1.358   1_545  S
C2827      C2828   1.409       .  A
C2827      F2833   1.357       .  S
C2828      C2829   1.411       .  A
C2829      C2830   1.400       .  A
C2829      F2832   1.357       .  S
C2830      F2834   1.358       .  S
C2837      C2838   1.406       .  A
C2837      C2842   1.400       .  A
C2837      F2855   1.358       .  S
C2838      C2839   1.405       .  A
C2838      C2843   1.484       .  S
C2839      C2840   1.401       .  A
C2839      F2844   1.358       .  S
C2840      C2841   1.409       .  A
C2840      F2856   1.358       .  S
C2841      C2842   1.407       .  A
C2842      F2845   1.357       .  S
C2843      C2846   1.403       .  A
C2843      C2850   1.405       .  A
C2846      C2847   1.399       .  A
C2846      F2851   1.358       .  S
C2847      C2848   1.411       .  A
C2847      F2853   1.357       .  S
C2848      C2849   1.411       .  A
C2849      C2850   1.402       .  A
C2849      F2852   1.357       .  S
C2850      F2854   1.358       .  S
C2857      C2858   1.406       .  A
C2857      C2862   1.401       .  A
C2857      F2875   1.358       .  S
C2858      C2859   1.406       .  A
C2858      C2863   1.487       .  S
C2859      C2860   1.400       .  A
C2859      F2864   1.358       .  S
C2860      C2861   1.410       .  A
C2860      F2876   1.357       .  S
C2861      C2862   1.409       .  A
C2862      F2865   1.357       .  S
C2863      C2866   1.407       .  A
C2863      C2870   1.405       .  A
C2866      C2867   1.402       .  A
C2866      F2871   1.358       .  S
C2867      C2868   1.408       .  A
C2867      F2873   1.357       .  S
C2868      C2869   1.410       .  A
C2869      C2870   1.398       .  A
C2869      F2872   1.358       .  S
C2870      F2874   1.358       .  S
C2877      C2878   1.407       .  A
C2877      C2882   1.402       .  A
C2877      F2895   1.358       .  S
C2878      C2879   1.406       .  A
C2878      C2883   1.486       .  S
C2879      C2880   1.400       .  A
C2879      F2884   1.358       .  S
C2880      C2881   1.407       .  A
C2880      F2896   1.358       .  S
C2881      C2882   1.407       .  A
C2882      F2885   1.358       .  S
C2883      C2886   1.406       .  A
C2883      C2890   1.405       .  A
C2886      C2887   1.403       .  A
C2886      F2891   1.358       .  S
C2887      C2888   1.409       .  A
C2887      F2893   1.358       .  S
C2888      C2889   1.409       .  A
C2889      C2890   1.400       .  A
C2889      F2892   1.357       .  S
C2890      F2894   1.358       .  S
C2897      C2898   1.403       .  A
C2897      C2902   1.400       .  A
C2897      F2915   1.358       .  S
C2898      C2899   1.405       .  A
C2898      C2903   1.481       .  S
C2899      C2900   1.401       .  A
C2899      F2904   1.358       .  S
C2900      C2901   1.407       .  A
C2900      F2916   1.357       .  S
C2901      C2902   1.409       .  A
C2902      F2905   1.357       .  S
C2903      C2906   1.404       .  A
C2903      C2910   1.403       .  A
C2906      C2907   1.401       .  A
C2906      F2911   1.358       .  S
C2907      C2908   1.409       .  A
C2907      F2913   1.357       .  S
C2908      C2909   1.410       .  A
C2909      C2910   1.400       .  A
C2909      F2912   1.357       .  S
C2910      F2914   1.358       .  S
C2917      C2918   1.402       .  A
C2917      C2922   1.397       .  A
C2917      F2935   1.358       .  S
C2918      C2919   1.403       .  A
C2918      C2923   1.475       .  S
C2919      C2920   1.401       .  A
C2919      F2924   1.357       .  S
C2920      C2921   1.408       .  A
C2920      F2936   1.357       .  S
C2921      C2922   1.409       .  A
C2922      F2925   1.358       .  S
C2923      C2926   1.400       .  A
C2923      C2930   1.405       .  A
C2926      C2927   1.396       .  A
C2926      F2931   1.358       .  S
C2927      C2928   1.408       .  A
C2927      F2933   1.358       .  S
C2928      C2929   1.408       .  A
C2929      C2930   1.402       .  A
C2929      F2932   1.357       .  S
C2930      F2934   1.358       .  S
C2937      C2938   1.409       .  A
C2937      C2942   1.403       .  A
C2937      F2955   1.358       .  S
C2938      C2939   1.406       .  A
C2938      C2943   1.492       .  S
C2939      C2940   1.401       .  A
C2939      F2944   1.358       .  S
C2940      C2941   1.410       .  A
C2940      F2956   1.358       .  S
C2941      C2942   1.407       .  A
C2942      F2945   1.357       .  S
C2943      C2946   1.408       .  A
C2943      C2950   1.409       .  A
C2946      C2947   1.402       .  A
C2946      F2951   1.358       .  S
C2947      C2948   1.406       .  A
C2947      F2953   1.358       .  S
C2948      C2949   1.405       .  A
C2949      C2950   1.401       .  A
C2949      F2952   1.358       .  S
C2950      F2954   1.358       .  S
C2957      C2958   1.405       .  A
C2957      C2962   1.399       .  A
C2957      F2975   1.358       .  S
C2958      C2959   1.404       .  A
C2958      C2963   1.481       .  S
C2959      C2960   1.400       .  A
C2959      F2964   1.358       .  S
C2960      C2961   1.409       .  A
C2960      F2976   1.358       .  S
C2961      C2962   1.407       .  A
C2962      F2965   1.357       .  S
C2963      C2966   1.405       .  A
C2963      C2970   1.404       .  A
C2966      C2967   1.400       .  A
C2966      F2971   1.358       .  S
C2967      C2968   1.408       .  A
C2967      F2973   1.358       .  S
C2968      C2969   1.408       .  A
C2969      C2970   1.399       .  A
C2969      F2972   1.357       .  S
C2970      F2974   1.358       .  S
C2977      C2978   1.406       .  A
C2977      C2982   1.397       .  A
C2977      F2995   1.358       .  S
C2978      C2979   1.407       .  A
C2978      C2983   1.486       .  S
C2979      C2980   1.402       .  A
C2979      F2984   1.357       .  S
C2980      C2981   1.408       .  A
C2980      F2996   1.357       .  S
C2981      C2982   1.409       .  A
C2982      F2985   1.357       .  S
C2983      C2986   1.406       .  A
C2983      C2990   1.407       .  A
C2986      C2987   1.397       .  A
C2986      F2991   1.358       .  S
C2987      C2988   1.408       .  A
C2987      F2993   1.358       .  S
C2988      C2989   1.407       .  A
C2989      C2990   1.402       .  A
C2989      F2992   1.358       .  S
C2990      F2994   1.358       .  S
C2997      C2998   1.401       .  A
C2997      C3002   1.396       .  A
C2997      F3015   1.358       .  S
C2998      C2999   1.404       .  A
C2998      C3003   1.474       .  S
C2999      C3000   1.400       .  A
C2999      F3004   1.358       .  S
C3000      C3001   1.407       .  A
C3000      F3016   1.357       .  S
C3001      C3002   1.409       .  A
C3002      F3005   1.358       .  S
C3003      C3006   1.403       .  A
C3003      C3010   1.403       .  A
C3006      C3007   1.399       .  A
C3006      F3011   1.358       .  S
C3007      C3008   1.407       .  A
C3007      F3013   1.357       .  S
C3008      C3009   1.408       .  A
C3009      C3010   1.397       .  A
C3009      F3012   1.358       .  S
C3010      F3014   1.358       .  S
C3017      C3018   1.402       .  A
C3017      C3022   1.395       .  A
C3017      F3035   1.358       .  S
C3018      C3019   1.404       .  A
C3018      C3023   1.474       .  S
C3019      C3020   1.399       .  A
C3019      F3024   1.358       .  S
C3020      C3021   1.408       .  A
C3020      F3036   1.358       .  S
C3021      C3022   1.407       .  A
C3022      F3025   1.358       .  S
C3023      C3026   1.403       .  A
C3023      C3030   1.404       .  A
C3026      C3027   1.395       .  A
C3026      F3031   1.358       .  S
C3027      C3028   1.406       .  A
C3027      F3033   1.358       .  S
C3028      C3029   1.407       .  A
C3029      C3030   1.399       .  A
C3029      F3032   1.358       .  S
C3030      F3034   1.358       .  S
C3037      C3038   1.405       .  A
C3037      C3042   1.399       .  A
C3037      F3055   1.358       .  S
C3038      C3039   1.405       .  A
C3038      C3043   1.483       .  S
C3039      C3040   1.401       .  A
C3039      F3044   1.358       .  S
C3040      C3041   1.408       .  A
C3040      F3056   1.357       .  S
C3041      C3042   1.409       .  A
C3042      F3045   1.358       .  S
C3043      C3046   1.404       .  A
C3043      C3050   1.404       .  A
C3046      C3047   1.400       .  A
C3046      F3051   1.358       .  S
C3047      C3048   1.409       .  A
C3047      F3053   1.357       .  S
C3048      C3049   1.411       .  A
C3049      C3050   1.401       .  A
C3049      F3052   1.357       .  S
C3050      F3054   1.358       .  S
C3057      C3058   1.402       .  A
C3057      C3062   1.400       .  A
C3057      F3075   1.358       .  S
C3058      C3059   1.405       .  A
C3058      C3063   1.480       .  S
C3059      C3060   1.403       .  A
C3059      F3064   1.358       .  S
C3060      C3061   1.409       .  A
C3060      F3076   1.357       .  S
C3061      C3062   1.410       .  A
C3062      F3065   1.358       .  S
C3063      C3066   1.403       .  A
C3063      C3070   1.403       .  A
C3066      C3067   1.399       .  A
C3066      F3071   1.358       .  S
C3067      C3068   1.409       .  A
C3067      F3073   1.357       .  S
C3068      C3069   1.412       .  A
C3069      C3070   1.404       .  A
C3069      F3072   1.357       .  S
C3070      F3074   1.357       .  S
C3077      C3078   1.403       .  A
C3077      C3082   1.396       .  A
C3077      F3095   1.358       .  S
C3078      C3079   1.405       .  A
C3078      C3083   1.479       .  S
C3079      C3080   1.402       .  A
C3079      F3084   1.358       .  S
C3080      C3081   1.408       .  A
C3080      F3096   1.358       .  S
C3081      C3082   1.408       .  A
C3082      F3085   1.357       .  S
C3083      C3086   1.404       .  A
C3083      C3090   1.404       .  A
C3086      C3087   1.397       .  A
C3086      F3091   1.358       .  S
C3087      C3088   1.407       .  A
C3087      F3093   1.357       .  S
C3088      C3089   1.409       .  A
C3089      C3090   1.402       .  A
C3089      F3092   1.357       .  S
C3090      F3094   1.358       .  S
C3097      C3098   1.402       .  A
C3097      C3102   1.399       .  A
C3097      F3115   1.358       .  S
C3098      C3099   1.401       .  A
C3098      C3103   1.474       .  S
C3099      C3100   1.398       .  A
C3099      F3104   1.358       .  S
C3100      C3101   1.410       .  A
C3100      F3116   1.358       .  S
C3101      C3102   1.409       .  A
C3102      F3105   1.357       .  S
C3103      C3106   1.402       .  A
C3103      C3110   1.400       .  A
C3106      C3107   1.401       .  A
C3106      F3111   1.358       .  S
C3107      C3108   1.410       .  A
C3107      F3113   1.357       .  S
C3108      C3109   1.411       .  A
C3109      C3110   1.396       .  A
C3109      F3112   1.357       .  S
C3110      F3114   1.358       .  S
C3117      C3118   1.406       .  A
C3117      C3122   1.396       .  A
C3117      F3135   1.358       .  S
C3118      C3119   1.407       .  A
C3118      C3123   1.482       .  S
C3119      C3120   1.399       .  A
C3119      F3124   1.358       .  S
C3120      C3121   1.406       .  A
C3120      F3136   1.358       .  S
C3121      C3122   1.405       .  A
C3122      F3125   1.358       .  S
C3123      C3126   1.407       .  A
C3123      C3130   1.406       .  A
C3126      C3127   1.398       .  A
C3126      F3131   1.358       .  S
C3127      C3128   1.404       .  A
C3127      F3133   1.358       .  S
C3128      C3129   1.405       .  A
C3129      C3130   1.399       .  A
C3129      F3132   1.358       .  S
C3130      F3134   1.358       .  S
C3137      C3138   1.407       .  A
C3137      C3142   1.402       .  A
C3137      F3155   1.358       .  S
C3138      C3139   1.406       .  A
C3138      C3143   1.488       .  S
C3139      C3140   1.401       .  A
C3139      F3144   1.358       .  S
C3140      C3141   1.408       .  A
C3140      F3156   1.358       .  S
C3141      C3142   1.408       .  A
C3142      F3145   1.357       .  S
C3143      C3146   1.406       .  A
C3143      C3150   1.407       .  A
C3146      C3147   1.400       .  A
C3146      F3151   1.358       .  S
C3147      C3148   1.408       .  A
C3147      F3153   1.357       .  S
C3148      C3149   1.408       .  A
C3149      C3150   1.402       .  A
C3149      F3152   1.358       .  S
C3150      F3154   1.358       .  S
C3157      C3158   1.406       .  A
C3157      C3162   1.401       .  A
C3157      F3175   1.358       .  S
C3158      C3159   1.407       .  A
C3158      C3163   1.488       .  S
C3159      C3160   1.401       .  A
C3159      F3164   1.358       .  S
C3160      C3161   1.409       .  A
C3160      F3176   1.357       .  S
C3161      C3162   1.409       .  A
C3162      F3165   1.357       .  S
C3163      C3166   1.406       .  A
C3163      C3170   1.405       .  A
C3166      C3167   1.403       .  A
C3166      F3171   1.358       .  S
C3167      C3168   1.411       .  A
C3167      F3173   1.357       .  S
C3168      C3169   1.411       .  A
C3169      C3170   1.400       .  A
C3169      F3172   1.357       .  S
C3170      F3174   1.358       .  S
C3177      C3178   1.405       .  A
C3177      C3182   1.400       .  A
C3177      F3195   1.358       .  S
C3178      C3179   1.405       .  A
C3178      C3183   1.488       .  S
C3179      C3180   1.401       .  A
C3179      F3184   1.358       .  S
C3180      C3181   1.413       .  A
C3180      F3196   1.356       .  S
C3181      C3182   1.413       .  A
C3182      F3185   1.356       .  S
C3183      C3186   1.405       .  A
C3183      C3190   1.407       .  A
C3186      C3187   1.399       .  A
C3186      F3191   1.358       .  S
C3187      C3188   1.411       .  A
C3187      F3193   1.357       .  S
C3188      C3189   1.410       .  A
C3189      C3190   1.402       .  A
C3189      F3192   1.357       .  S
C3190      F3194   1.358       .  S
C3197      C3198   1.405       .  A
C3197      C3202   1.399       .  A
C3197      F3215   1.358       .  S
C3198      C3199   1.404       .  A
C3198      C3203   1.480       .  S
C3199      C3200   1.397       .  A
C3199      F3204   1.358       .  S
C3200      C3201   1.410       .  A
C3200      F3216   1.357       .  S
C3201      C3202   1.409       .  A
C3202      F3205   1.357       .  S
C3203      C3206   1.405       .  A
C3203      C3210   1.406       .  A
C3206      C3207   1.397       .  A
C3206      F3211   1.358       .  S
C3207      C3208   1.406       .  A
C3207      F3213   1.358       .  S
C3208      C3209   1.406       .  A
C3209      C3210   1.399       .  A
C3209      F3212   1.358       .  S
C3210      F3214   1.358       .  S
C3217      C3218   1.403       .  A
C3217      C3222   1.400       .  A
C3217      F3235   1.358       .  S
C3218      C3219   1.404       .  A
C3218      C3223   1.481       .  S
C3219      C3220   1.401       .  A
C3219      F3224   1.358       .  S
C3220      C3221   1.410       .  A
C3220      F3236   1.357       .  S
C3221      C3222   1.411       .  A
C3222      F3225   1.357       .  S
C3223      C3226   1.403       .  A
C3223      C3230   1.403       .  A
C3226      C3227   1.400       .  A
C3226      F3231   1.358       .  S
C3227      C3228   1.412       .  A
C3227      F3233   1.357       .  S
C3228      C3229   1.412       .  A
C3229      C3230   1.400       .  A
C3229      F3232   1.357       .  S
C3230      F3234   1.358       .  S
C3237      C3238   1.407       .  A
C3237      C3242   1.404       .  A
C3237      F3255   1.357       .  S
C3238      C3239   1.405       .  A
C3238      C3243   1.487       .  S
C3239      C3240   1.397       .  A
C3239      F3244   1.358       .  S
C3240      C3241   1.409       .  A
C3240      F3256   1.358       .  S
C3241      C3242   1.408       .  A
C3242      F3245   1.357       .  S
C3243      C3246   1.408       .  A
C3243      C3250   1.403       .  A
C3246      C3247   1.406       .  A
C3246      F3251   1.358       .  S
C3247      C3248   1.410       .  A
C3247      F3253   1.357       .  S
C3248      C3249   1.411       .  A
C3249      C3250   1.395       .  A
C3249      F3252   1.357       .  S
C3250      F3254   1.358       .  S
C3257      C3258   1.406       .  A
C3257      C3262   1.397       .  A
C3257      F3275   1.358       .  S
C3258      C3259   1.408       .  A
C3258      C3263   1.482       .  S
C3259      C3260   1.398       .  A
C3259      F3264   1.358       .  S
C3260      C3261   1.404       .  A
C3260      F3276   1.358       .  S
C3261      C3262   1.406       .  A
C3262      F3265   1.358       .  S
C3263      C3266   1.408       .  A
C3263      C3270   1.406       .  A
C3266      C3267   1.398       .  A
C3266      F3271   1.358       .  S
C3267      C3268   1.405       .  A
C3267      F3273   1.358       .  S
C3268      C3269   1.405       .  A
C3269      C3270   1.396       .  A
C3269      F3272   1.358       .  S
C3270      F3274   1.358       .  S
C3277      C3278   1.406       .  A
C3277      C3282   1.399       .  A
C3277      F3295   1.358       .  S
C3278      C3279   1.406       .  A
C3278      C3283   1.485       .  S
C3279      C3280   1.401       .  A
C3279      F3284   1.358       .  S
C3280      C3281   1.408       .  A
C3280      F3296   1.358       .  S
C3281      C3282   1.408       .  A
C3282      F3285   1.357       .  S
C3283      C3286   1.406       .  A
C3283      C3290   1.406       .  A
C3286      C3287   1.400       .  A
C3286      F3291   1.358       .  S
C3287      C3288   1.407       .  A
C3287      F3293   1.357       .  S
C3288      C3289   1.408       .  A
C3289      C3290   1.401       .  A
C3289      F3292   1.358       .  S
C3290      F3294   1.358       .  S
C3297      C3298   1.402       .  A
C3297      C3302   1.401       .  A
C3297      F3315   1.358       .  S
C3298      C3299   1.402       .  A
C3298      C3303   1.476       .  S
C3299      C3300   1.399       .  A
C3299      F3304   1.358       .  S
C3300      C3301   1.410       .  A
C3300      F3316   1.357       .  S
C3301      C3302   1.412       .  A
C3302      F3305   1.357       .  S
C3303      C3306   1.402       .  A
C3303      C3310   1.402       .  A
C3306      C3307   1.401       .  A
C3306      F3311   1.358       .  S
C3307      C3308   1.410       .  A
C3307      F3313   1.357       .  S
C3308      C3309   1.409       .  A
C3309      C3310   1.399       .  A
C3309      F3312   1.357       .  S
C3310      F3314   1.358       .  S
C3317      C3318   1.401       .  A
C3317      C3322   1.396       .  A
C3317      F3335   1.358       .  S
C3318      C3319   1.404       .  A
C3318      C3323   1.475       .  S
C3319      C3320   1.403       .  A
C3319      F3324   1.358       .  S
C3320      C3321   1.409       .  A
C3320      F3336   1.357       .  S
C3321      C3322   1.409       .  A
C3322      F3325   1.358       .  S
C3323      C3326   1.400       .  A
C3323      C3330   1.403       .  A
C3326      C3327   1.394       .  A
C3326      F3331   1.358       .  S
C3327      C3328   1.410       .  A
C3327      F3333   1.357       .  S
C3328      C3329   1.411       .  A
C3329      C3330   1.403       .  A
C3329      F3332   1.357       .  S
C3330      F3334   1.357       .  S
C3337      C3338   1.405       .  A
C3337      C3342   1.398       .  A
C3337      F3355   1.358       .  S
C3338      C3339   1.406       .  A
C3338      C3343   1.481       .  S
C3339      C3340   1.398       .  A
C3339      F3344   1.358       .  S
C3340      C3341   1.405       .  A
C3340      F3356   1.358       .  S
C3341      C3342   1.406       .  A
C3342      F3345   1.358       .  S
C3343      C3346   1.406       .  A
C3343      C3350   1.405       .  A
C3346      C3347   1.398       .  A
C3346      F3351   1.358       .  S
C3347      C3348   1.406       .  A
C3347      F3353   1.358       .  S
C3348      C3349   1.407       .  A
C3349      C3350   1.399       .  A
C3349      F3352   1.358       .  S
C3350      F3354   1.358       .  S
C3357      C3358   1.405       .  A
C3357      C3362   1.401       .  A
C3357      F3375   1.358       .  S
C3358      C3359   1.405   1_556  A
C3358      C3363   1.485   1_556  S
C3359      C3360   1.400   1_554  A
C3359      F3364   1.358       .  S
C3360      C3361   1.409       .  A
C3360      F3376   1.357       .  S
C3361      C3362   1.410       .  A
C3362      F3365   1.357       .  S
C3363      C3366   1.405   1_554  A
C3363      C3370   1.405       .  A
C3366      C3367   1.401       .  A
C3366      F3371   1.358       .  S
C3367      C3368   1.410   1_556  A
C3367      F3373   1.357       .  S
C3368      C3369   1.410       .  A
C3369      C3370   1.400       .  A
C3369      F3372   1.357       .  S
C3370      F3374   1.358       .  S
C3377      C3378   1.405       .  A
C3377      C3382   1.398       .  A
C3377      F3395   1.358       .  S
C3378      C3379   1.406       .  A
C3378      C3383   1.485       .  S
C3379      C3380   1.402       .  A
C3379      F3384   1.358       .  S
C3380      C3381   1.408       .  A
C3380      F3396   1.357       .  S
C3381      C3382   1.410       .  A
C3382      F3385   1.357       .  S
C3383      C3386   1.404       .  A
C3383      C3390   1.406       .  A
C3386      C3387   1.397       .  A
C3386      F3391   1.358       .  S
C3387      C3388   1.411       .  A
C3387      F3393   1.357       .  S
C3388      C3389   1.410       .  A
C3389      C3390   1.402       .  A
C3389      F3392   1.357       .  S
C3390      F3394   1.358       .  S
C3397      C3398   1.404       .  A
C3397      C3402   1.402       .  A
C3397      F3415   1.358       .  S
C3398      C3399   1.402       .  A
C3398      C3403   1.480       .  S
C3399      C3400   1.399       .  A
C3399      F3404   1.358       .  S
C3400      C3401   1.410       .  A
C3400      F3416   1.357       .  S
C3401      C3402   1.410       .  A
C3402      F3405   1.357       .  S
C3403      C3406   1.403       .  A
C3403      C3410   1.404       .  A
C3406      C3407   1.400       .  A
C3406      F3411   1.358       .  S
C3407      C3408   1.409       .  A
C3407      F3413   1.357       .  S
C3408      C3409   1.408       .  A
C3409      C3410   1.402       .  A
C3409      F3412   1.357       .  S
C3410      F3414   1.358       .  S
C3417      C3418   1.404       .  A
C3417      C3422   1.404       .  A
C3417      F3435   1.357       .  S
C3418      C3419   1.401       .  A
C3418      C3423   1.478       .  S
C3419      C3420   1.396       .  A
C3419      F3424   1.358       .  S
C3420      C3421   1.409       .  A
C3420      F3436   1.357       .  S
C3421      C3422   1.410       .  A
C3422      F3425   1.357       .  S
C3423      C3426   1.404       .  A
C3423      C3430   1.402       .  A
C3426      C3427   1.400       .  A
C3426      F3431   1.358       .  S
C3427      C3428   1.407       .  A
C3427      F3433   1.357       .  S
C3428      C3429   1.409       .  A
C3429      C3430   1.401       .  A
C3429      F3432   1.358       .  S
C3430      F3434   1.358       .  S
C3437      C3438   1.408       .  A
C3437      C3442   1.398       .  A
C3437      F3455   1.358       .  S
C3438      C3439   1.407   1_554  A
C3438      C3443   1.485       .  S
C3439      C3440   1.400       .  A
C3439      F3444   1.358       .  S
C3440      C3441   1.406       .  A
C3440      F3456   1.358       .  S
C3441      C3442   1.403   1_556  A
C3442      F3445   1.358       .  S
C3443      C3446   1.406       .  A
C3443      C3450   1.408       .  A
C3446      C3447   1.396       .  A
C3446      F3451   1.358       .  S
C3447      C3448   1.405       .  A
C3447      F3453   1.358       .  S
C3448      C3449   1.406       .  A
C3449      C3450   1.402       .  A
C3449      F3452   1.358       .  S
C3450      F3454   1.358   1_554  S
