geometry optimzed in LAMMPS
_audit_creation_date              2020-11-30 
_audit_creation_method            'lammps2cif' 
_symmetry_space_group_name_H-M    'P1' 
_symmetry_Int_Tables_number       1 
_symmetry_cell_setting            triclinic 
loop_ 
_symmetry_equiv_pos_as_xyz 
  x,y,z 
_cell_length_a                    44.79279444074095 
_cell_length_b                    45.74764406288406 
_cell_length_c                    25.076005867460914 
_cell_angle_alpha                 91.47338437906656 
_cell_angle_beta                  92.06548029215509 
_cell_angle_gamma                 90.7609361497043 
loop_ 
_atom_site_label 
_atom_site_type_symbol 
_atom_site_fract_x 
_atom_site_fract_y 
_atom_site_fract_z 
_atom_site_charge 
O1          O  0.15555997  0.39477755  0.38631853    -0.79350
O2          O  0.11272277  0.27971134  0.33785073    -0.79370
O3          O  0.17032191  0.33271044  0.24544024    -0.79380
O4          O  0.09467959  0.32974633  0.37489449    -0.79320
O5          O  0.13203263  0.30747629  0.26456320    -0.79440
O6          O  0.11361862  0.36286159  0.43167764    -0.79360
O7          O  0.09512981  0.27157584  0.41380500    -0.79350
O8          O  0.14740740  0.37622783  0.30638789    -0.79380
C9          C  0.14646183  0.39762129  0.33844457     1.10340
C10         C  0.10110823  0.26163217  0.36793040     1.10230
C11         C  0.14454432  0.32400496  0.23361081     1.10360
C12         C  0.09100122  0.35126160  0.40647186     1.10240
O13         O  0.16162156  0.32980143  0.48490303    -0.79350
O14         O  0.19462648  0.28800771  0.28571847    -0.79420
O15         O  0.20485550  0.38005086  0.36045887    -0.79360
O16         O  0.15342914  0.27740889  0.44162531    -0.79340
O17         O  0.17526062  0.25964142  0.37306073    -0.79390
O18         O  0.20275853  0.35835941  0.43554092    -0.79360
O19         O  0.11593376  0.31592024  0.47791897    -0.79320
O20         O  0.21836453  0.32742988  0.31740422    -0.79390
Co21       Co  0.15863083  0.35874159  0.43003644     1.51530
Co22       Co  0.15483391  0.28665796  0.32016753     1.51690
Co23       Co  0.18220444  0.35132121  0.31380478     1.51570
Co24       Co  0.12508221  0.30304046  0.40388204     1.51470
O25         O  0.15940075  0.32617195  0.37001812    -1.41280
C26         C  0.13821283  0.32262788  0.50722016     1.10270
C27         C  0.21817275  0.30362274  0.29122437     1.10360
C28         C  0.21722085  0.37304502  0.40356068     1.10300
C29         C  0.17162490  0.25983342  0.42286719     1.10270
O30         O  0.14552127  0.35068800  0.99633866    -0.79350
O31         O  0.20948970  0.29596993  0.83323875    -0.79370
O32         O  0.16568834  0.29565735  0.95841449    -0.79380
O33         O  0.20181248  0.36485759  0.85668607    -0.79320
O34         O  0.17766355  0.26215166  0.89979175    -0.79440
O35         O  0.19638077  0.33996408  0.93053544    -0.79360
O36         O  0.20261141  0.32729088  0.77115228    -0.79350
O37         O  0.11280846  0.31307368  0.98846569    -0.79380
C38         C  0.12562177  0.33408011  0.01672807     1.10340
C39         C  0.21784084  0.30706159  0.79092129     1.10230
C40         C  0.17717433  0.27129372  0.94762763     1.10360
C41         C  0.21269016  0.35495470  0.90051126     1.10240
O42         O  0.15641936  0.38587496  0.90433862    -0.79350
O43         O  0.12875893  0.26110493  0.82428638    -0.79420
O44         O  0.09085260  0.31496654  0.87915049    -0.79360
O45         O  0.13993676  0.33203254  0.75315022    -0.79340
O46         O  0.16118407  0.28847165  0.75228808    -0.79390
O47         O  0.10849812  0.35419338  0.91397637    -0.79360
O48         O  0.13716979  0.37265648  0.82810873    -0.79320
O49         O  0.11683841  0.26537731  0.90845695    -0.79390
Co50       Co  0.15229376  0.34283056  0.92142295     1.51530
Co51       Co  0.16886760  0.27905004  0.82914004     1.51690
Co52       Co  0.12944475  0.30754467  0.91686219     1.51570
Co53       Co  0.16914019  0.34833903  0.80526210     1.51470
O54         O  0.15323394  0.31767593  0.85331948    -1.41280
C55         C  0.14252994  0.39266360  0.86167958     1.10270
C56         C  0.11570509  0.25144224  0.86404730     1.10360
C57         C  0.08595110  0.34007505  0.89589491     1.10300
C58         C  0.14580685  0.30819853  0.72986798     1.10270
O59         O  0.47032668  0.40721682  0.97247372    -0.79350
O60         O  0.33582589  0.40399917  0.01842624    -0.79370
O61         O  0.39817266  0.34536884  0.01355549    -0.79380
O62         O  0.37864962  0.43824773  0.88309183    -0.79320
O63         O  0.36749594  0.36242618  0.07432904    -0.79440
O64         O  0.42138767  0.41565179  0.90480334    -0.79360
O65         O  0.35604195  0.39359888  0.94207684    -0.79350
O66         O  0.44718528  0.36608811  0.96412399    -0.79380
C67         C  0.47022182  0.38108495  0.95663585     1.10340
C68         C  0.33353842  0.39277195  0.97168858     1.10230
C69         C  0.37726613  0.34116266  0.04509757     1.10360
C70         C  0.40191518  0.42442411  0.86955185     1.10240
O71         O  0.45755420  0.45791675  0.95165198    -0.79350
O72         O  0.40146814  0.41163411  0.12703954    -0.79420
O73         O  0.46533112  0.39785293  0.06832505    -0.79360
O74         O  0.35507262  0.45393912  0.98459622    -0.79340
O75         O  0.37045863  0.45159736  0.06865638    -0.79390
O76         O  0.44838143  0.44249078  0.05352230    -0.79360
O77         O  0.40998570  0.46713927  0.96054770    -0.79320
O78         O  0.42056060  0.36844670  0.11394907    -0.79390
Co79       Co  0.43351772  0.42976852  0.98230875     1.51530
Co80       Co  0.37092199  0.40768543  0.06970956     1.51690
Co81       Co  0.43101351  0.37148219  0.03715854     1.51570
Co82       Co  0.38580642  0.42672652  0.95398988     1.51470
O83         O  0.40385344  0.40565926  0.01698298    -1.41280
C84         C  0.43692836  0.47601940  0.95216144     1.10270
C85         C  0.41349663  0.38911833  0.14508958     1.10360
C86         C  0.46596051  0.42560974  0.07814028     1.10300
C87         C  0.35863705  0.46598637  0.03088764     1.10270
O88         O  0.45263972  0.37125038  0.46959526    -0.79350
O89         O  0.34628937  0.39096436  0.49717804    -0.79370
O90         O  0.41209902  0.34897795  0.52218049    -0.79380
O91         O  0.40598159  0.40012726  0.40077343    -0.79320
O92         O  0.37568081  0.36126149  0.57342632    -0.79440
O93         O  0.45420410  0.40999487  0.39113422    -0.79360
O94         O  0.35303524  0.42593477  0.44025151    -0.79350
O95         O  0.47153027  0.36096744  0.54921228    -0.79380
C96         C  0.47499420  0.36292400  0.49894867     1.10340
C97         C  0.33776657  0.40495162  0.45724629     1.10230
C98         C  0.39051253  0.34148654  0.54980394     1.10360
C99         C  0.42907102  0.40050609  0.37122229     1.10240
O100        O  0.43540667  0.45720047  0.44791707    -0.79350
O101        O  0.39233425  0.41616529  0.62489748    -0.79420
O102        O  0.45939254  0.41733985  0.57624193    -0.79360
O103        O  0.38828359  0.46708988  0.49957112    -0.79340
O104        O  0.35701425  0.44727773  0.55485590    -0.79390
O105        O  0.47580217  0.42973403  0.49948746    -0.79360
O106        O  0.39672811  0.45916906  0.39284698    -0.79320
O107        O  0.42541688  0.38042824  0.62306365    -0.79390
Co108      Co  0.43893492  0.41336808  0.46116325     1.51530
Co109      Co  0.36986927  0.40456812  0.55968837     1.51690
Co110      Co  0.43611757  0.38424267  0.54622940     1.51570
Co111      Co  0.39668505  0.43315134  0.45361941     1.51470
O112        O  0.40741465  0.41153709  0.51989281    -1.41280
C113        C  0.42267535  0.46849300  0.40695590     1.10270
C114        C  0.41134587  0.40024171  0.64823097     1.10360
C115        C  0.47660547  0.43254747  0.54982376     1.10300
C116        C  0.36908321  0.46976107  0.53465568     1.10270
O117        O  0.23663862  0.19622984  0.14708680    -0.79350
O118        O  0.34295506  0.10918854  0.05655900    -0.79370
O119        O  0.30363763  0.19956522  0.01397035    -0.79380
O120        O  0.27397016  0.11754091  0.18549420    -0.79320
O121        O  0.31338088  0.15309658  0.00073734    -0.79440
O122        O  0.25435509  0.14061031  0.11910470    -0.79360
O123        O  0.31749178  0.09282733  0.12441585    -0.79350
O124        O  0.25701358  0.18927656  0.07023548    -0.79380
C125        C  0.23481602  0.19809277  0.09667641     1.10340
C126        C  0.33151798  0.08829813  0.08208640     1.10230
C127        C  0.30393036  0.17690990  0.98233989     1.10360
C128        C  0.25128901  0.12272937  0.15533129     1.10240
O129        O  0.27380265  0.16848248  0.22342827    -0.79350
O130        O  0.35613528  0.19674784  0.04587547    -0.79420
O131        O  0.28709557  0.23962501  0.10239735    -0.79360
O132        O  0.36269820  0.12880053  0.17788831    -0.79340
O133        O  0.37937071  0.15356544  0.10999572    -0.79390
O134        O  0.29337133  0.21469011  0.17454380    -0.79360
O135        O  0.32089408  0.15799442  0.23182803    -0.79320
O136        O  0.33997549  0.21143743  0.12026098    -0.79390
Co137      Co  0.27515310  0.17670736  0.14376413     1.51530
Co138      Co  0.34513974  0.15335847  0.05787748     1.51690
Co139      Co  0.29950608  0.19862883  0.09670381     1.51570
Co140      Co  0.31830122  0.12693942  0.17514223     1.51470
O141        O  0.31295833  0.15786407  0.11609633    -1.41280
C142        C  0.29758716  0.16725439  0.25258931     1.10270
C143        C  0.35439844  0.21725402  0.08063452     1.10360
C144        C  0.28799989  0.23924058  0.15327307     1.10300
C145        C  0.38373604  0.14085772  0.15379016     1.10270
O146        O  0.23793713  0.18751062  0.62341723    -0.79350
O147        O  0.34205890  0.11015126  0.55224036    -0.79370
O148        O  0.31516940  0.20392034  0.51370952    -0.79380
O149        O  0.28404978  0.11549759  0.68009759    -0.79320
O150        O  0.31928683  0.15704822  0.50162578    -0.79440
O151        O  0.26488105  0.13389509  0.60760329    -0.79360
O152        O  0.33594518  0.09659288  0.63589198    -0.79350
O153        O  0.26578522  0.18538969  0.55450329    -0.79380
C154        C  0.24035671  0.19076421  0.57347759     1.10340
C155        C  0.34015588  0.09062504  0.58719866     1.10230
C156        C  0.31384946  0.18153575  0.48236737     1.10360
C157        C  0.26246546  0.11680035  0.64545323     1.10240
O158        O  0.27249743  0.16491846  0.71371357    -0.79350
O159        O  0.36597429  0.19656107  0.55505447    -0.79420
O160        O  0.28769929  0.23856989  0.59671032    -0.79360
O161        O  0.37015174  0.14185998  0.68850140    -0.79340
O162        O  0.38593610  0.14558944  0.60577728    -0.79390
O163        O  0.29107676  0.21148483  0.66661094    -0.79360
O164        O  0.32007623  0.16390979  0.73305906    -0.79320
O165        O  0.34278480  0.21470668  0.62238202    -0.79390
Co166      Co  0.27866760  0.17234090  0.63343112     1.51530
Co167      Co  0.35089950  0.15302054  0.55769020     1.51690
Co168      Co  0.30503061  0.19913027  0.59222099     1.51570
Co169      Co  0.32705829  0.13190461  0.67979259     1.51470
O170        O  0.32031422  0.15944101  0.61632043    -1.41280
C171        C  0.29396914  0.16771199  0.74863621     1.10270
C172        C  0.36168469  0.21814381  0.58761887     1.10360
C173        C  0.28353097  0.23557130  0.64626471     1.10300
C174        C  0.39070228  0.14153168  0.65508003     1.10270
O175        O  0.10066913  0.52418548  0.28765990    -0.79350
O176        O  0.06472108  0.14224333  0.23503807    -0.79370
O177        O  0.12444426  0.07507416  0.24116335    -0.79380
O178        O  0.07707804  0.07679792  0.36384036    -0.79320
O179        O  0.10676051  0.10780591  0.18487922    -0.79440
O180        O  0.05627736  0.03410465  0.35030036    -0.79360
O181        O  0.07819797  0.12604368  0.31341035    -0.79350
O182        O  0.12000545  0.01695739  0.20950411    -0.79380
C183        C  0.11773707  0.50953816  0.25731753     1.10340
C184        C  0.07488482  0.14664808  0.28229120     1.10230
C185        C  0.12881279  0.09621158  0.21055529     1.10360
C186        C  0.07005461  0.05237810  0.38138760     1.10240
O187        O  0.01344097  0.04064284  0.25984284    -0.79350
O188        O  0.05508571  0.07366659  0.13654141    -0.79420
O189        O  0.05964635  0.51717784  0.19030358    -0.79360
O190        O  0.01498497  0.11958211  0.27849419    -0.79340
O191        O  0.01804066  0.10460539  0.19424665    -0.79390
O192        O  0.04949274  0.49334531  0.26322309    -0.79360
O193        O  0.01347191  0.06802900  0.33239958    -0.79320
O194        O  0.09900430  0.05636842  0.14295593    -0.79390
Co195      Co  0.05692506  0.03447107  0.26924493     1.51530
Co196      Co  0.06124930  0.10509605  0.19090064     1.51690
Co197      Co  0.09209271  0.04746307  0.21968523     1.51570
Co198      Co  0.04726909  0.09649927  0.31801641     1.51470
O199        O  0.06350830  0.07647099  0.25137595    -1.41280
C200        C  0.00107769  0.04828598  0.30225817     1.10270
C201        C  0.07788745  0.06524865  0.11369891     1.10360
C202        C  0.04786782  0.49477514  0.21270057     1.10300
C203        C  0.00374581  0.11659930  0.23099715     1.10270
O204        O  0.06529839  0.50552360  0.79531862    -0.79350
O205        O  0.08696616  0.13178078  0.75087887    -0.79370
O206        O  0.13740436  0.06465298  0.73244111    -0.79380
O207        O  0.07663038  0.09350234  0.85694298    -0.79320
O208        O  0.11983423  0.09942627  0.68069388    -0.79440
O209        O  0.06709316  0.04879681  0.86242070    -0.79360
O210        O  0.04640870  0.12823345  0.79770222    -0.79350
O211        O  0.10981230  0.52426550  0.79099650    -0.79380
C212        C  0.09329868  0.50349915  0.80391873     1.10340
C213        C  0.07030024  0.14166193  0.78670104     1.10230
C214        C  0.14178771  0.08585688  0.70228781     1.10360
C215        C  0.07760665  0.07167516  0.88471781     1.10240
O216        O  0.01168493  0.03504316  0.82758618    -0.79350
O217        O  0.06323073  0.07679065  0.63323408    -0.79420
O218        O  0.06924528  0.51000546  0.69666579    -0.79360
O219        O  0.01265331  0.08167037  0.74658576    -0.79340
O220        O  0.03233142  0.11434858  0.69609012    -0.79390
O221        O  0.02778806  0.53268361  0.71813334    -0.79360
O222        O  0.01365785  0.08222234  0.85373066    -0.79320
O223        O  0.10196348  0.04836491  0.63948892    -0.79390
Co224      Co  0.04694506  0.04524946  0.78766022     1.51530
Co225      Co  0.07548074  0.10330607  0.69368793     1.51690
Co226      Co  0.10296245  0.03864011  0.71799544     1.51570
Co227      Co  0.04588039  0.08458210  0.80049086     1.51470
O228        O  0.07647764  0.07077894  0.74761025    -1.41280
C229        C  0.50177882  0.05636627  0.85616311     1.10270
C230        C  0.08121795  0.05969926  0.61149731     1.10360
C231        C  0.04104547  0.51353533  0.69080141     1.10300
C232        C  0.00949211  0.10147927  0.71294369     1.10270
C233        C  0.10406497  0.04975381  0.52208851     0.24390
C234        C  0.07856208  0.05413236  0.55255835    -0.23720
C235        C  0.05054103  0.05557291  0.52539328     0.19290
C236        C  0.04778915  0.05132011  0.47002293     0.24330
C237        C  0.07321308  0.04816750  0.43956521    -0.23670
C238        C  0.10146861  0.04781697  0.46597060     0.19230
F239        F  0.12660271  0.04701900  0.43738945    -0.13620
F240        F  0.13170813  0.04993163  0.54618800    -0.15990
F241        F  0.02034100  0.05306874  0.44559783    -0.15990
F242        F  0.02587213  0.06312185  0.55173821    -0.13620
C243        C  0.10145935  0.05418770  0.97051397     0.24390
C244        C  0.08308550  0.07384986  0.94331626    -0.23720
C245        C  0.06492428  0.09241990  0.97318719     0.19290
C246        C  0.06340378  0.08964238  0.02844274     0.24330
C247        C  0.08045312  0.06850519  0.05532709    -0.23670
C248        C  0.10035151  0.05151916  0.02600237     0.19230
F249        F  0.11796854  0.03163728  0.05061587    -0.13620
F250        F  0.12084760  0.03790522  0.94342335    -0.15990
F251        F  0.04491341  0.10752415  0.05546943    -0.15990
F252        F  0.04692021  0.11191256  0.94836510    -0.13620
C253        C  0.42484816  0.10681926  0.70024156     0.24390
C254        C  0.42107785  0.13311566  0.67313227    -0.23720
C255        C  0.44643742  0.14844036  0.65718828     0.19290
C256        C  0.47514825  0.13810646  0.66951870     0.24330
C257        C  0.47905564  0.11165385  0.69677135    -0.23670
C258        C  0.45343129  0.09596867  0.71108258     0.19230
F259        F  0.45593155  0.06958060  0.73408578    -0.13620
F260        F  0.40068577  0.09070728  0.71364351    -0.15990
F261        F  0.49904046  0.15419181  0.65488244    -0.15990
F262        F  0.44339202  0.17356793  0.62997680    -0.13620
C263        C  0.22709859  0.08747254  0.70023542     0.24390
C264        C  0.23214255  0.10481883  0.65582334    -0.23720
C265        C  0.20704565  0.11487412  0.62608613     0.19290
C266        C  0.17806775  0.10948304  0.64226356     0.24330
C267        C  0.17295708  0.09296509  0.68762868    -0.23670
C268        C  0.19788210  0.08141802  0.71573310     0.19230
F269        F  0.19415613  0.06462786  0.75892440    -0.13620
F270        F  0.25041699  0.07671165  0.72932873    -0.15990
F271        F  0.15498051  0.12042807  0.61276065    -0.15990
F272        F  0.21023336  0.13090991  0.58179431    -0.13620
C273        C  0.28135680  0.14957746  0.83970459     0.24390
C274        C  0.28968456  0.17294545  0.80773585    -0.23720
C275        C  0.29963591  0.19915738  0.83429489     0.19290
C276        C  0.30202113  0.20154788  0.89097491     0.24330
C277        C  0.29546930  0.17743464  0.92292906    -0.23670
C278        C  0.28432324  0.15168299  0.89603513     0.19230
F279        F  0.27724258  0.12783029  0.92437564    -0.13620
F280        F  0.27232377  0.12373769  0.81619268    -0.15990
F281        F  0.31281588  0.22681301  0.91427704    -0.15990
F282        F  0.30833971  0.22217058  0.80519379    -0.13620
C283        C  0.27957595  0.16051657  0.34529961     0.24390
C284        C  0.29860458  0.17491319  0.31094014    -0.23720
C285        C  0.32172634  0.19301295  0.33388383     0.19290
C286        C  0.32465367  0.19781746  0.38961052     0.24330
C287        C  0.30625479  0.18258189  0.42396451    -0.23670
C288        C  0.28435291  0.16317347  0.40095448     0.19230
F289        F  0.26918794  0.14488789  0.43231305    -0.13620
F290        F  0.25834485  0.14145792  0.32503061    -0.15990
F291        F  0.34740631  0.21501868  0.41013813    -0.15990
F292        F  0.34237073  0.20507895  0.30243389    -0.13620
C293        C  0.43933524  0.14247874  0.14394026     0.24390
C294        C  0.41481376  0.13888425  0.17680844    -0.23720
C295        C  0.42045380  0.13158009  0.23072893     0.19290
C296        C  0.44968930  0.12622494  0.25004651     0.24330
C297        C  0.47371408  0.12767619  0.21572549    -0.23670
C298        C  0.46827731  0.13694313  0.16310187     0.19230
F299        F  0.49108170  0.13991130  0.12926566    -0.13620
F300        F  0.43536548  0.14983945  0.09206844    -0.15990
F301        F  0.45423565  0.11811284  0.30135349    -0.15990
F302        F  0.39765379  0.12899383  0.26460340    -0.13620
C303        C  0.16645769  0.11682730  0.14930724     0.24390
C304        C  0.16023287  0.10411399  0.19826275    -0.23720
C305        C  0.18454503  0.09547664  0.23146612     0.19290
C306        C  0.21417357  0.10002785  0.21655662     0.24330
C307        C  0.22033066  0.11316742  0.16788965    -0.23670
C308        C  0.19591838  0.12104137  0.13417704     0.19230
F309        F  0.20035589  0.13309917  0.08613168    -0.13620
F310        F  0.14400534  0.12444055  0.11477499    -0.15990
F311        F  0.23676852  0.09202533  0.25040338    -0.15990
F312        F  0.17974294  0.08272287  0.27875558    -0.13620
C313        C  0.01243339  0.44341216  0.62449512     0.24390
C314        C  0.49628257  0.45345983  0.57978248    -0.23720
C315        C  0.49232899  0.48371365  0.57451170     0.19290
C316        C  0.00526530  0.50344512  0.61279792     0.24330
C317        C  0.02371407  0.49327346  0.65453355    -0.23670
C318        C  0.02573154  0.46310068  0.66152821     0.19230
F319        F  0.03723484  0.45265317  0.70761021    -0.13620
F320        F  0.01345030  0.41441660  0.63457114    -0.15990
F321        F  0.99796711  0.03203894  0.61172346    -0.15990
F322        F  0.47388307  0.49388588  0.53525935    -0.13620
C323        C  0.47101634  0.48443258  0.37490256     0.24390
C324        C  0.44029867  0.98961092  0.37686856    -0.23720
C325        C  0.42859956  0.01435011  0.35147919     0.19290
C326        C  0.44798120  0.03395032  0.32616168     0.24330
C327        C  0.47883273  0.02829713  0.32488791    -0.23670
C328        C  0.48964124  0.50303677  0.34900477     0.19230
F329        F  0.01860097  0.49554198  0.34792906    -0.13620
F330        F  0.48362727  0.46084704  0.39799531    -0.15990
F331        F  0.43674723  0.05816495  0.30320176    -0.15990
F332        F  0.39899588  0.02006785  0.35290948    -0.13620
C333        C  0.36205368  0.27198712  0.61316453     0.24390
C334        C  0.37280368  0.24907267  0.58005973    -0.23720
C335        C  0.39034247  0.25710466  0.53704630     0.19290
C336        C  0.39630143  0.28692419  0.52700737     0.24330
C337        C  0.38420999  0.30959096  0.55887421    -0.23590
C338        C  0.36716837  0.30142893  0.60219581     0.19230
F339        F  0.35547012  0.32202083  0.63505290    -0.13620
F340        F  0.34574347  0.26623572  0.65637433    -0.15990
F341        F  0.41347213  0.29353224  0.48534818    -0.15990
F342        F  0.40140154  0.23621109  0.50414680    -0.13620
C343        C  0.33432316  0.00724873  0.57582942     0.24390
C344        C  0.36094280  0.00045723  0.55008650    -0.23720
C345        C  0.37987279  0.02392844  0.53614940     0.19290
C346        C  0.37214397  0.05295593  0.54630294     0.24330
C347        C  0.34569550  0.05969500  0.57176431    -0.23670
C348        C  0.32696453  0.03661285  0.58710957     0.19230
F349        F  0.30131954  0.04254726  0.61225952    -0.13620
F350        F  0.31521443  0.48562908  0.58932426    -0.15990
F351        F  0.39144132  0.07461693  0.53347237    -0.15990
F352        F  0.40649642  0.01899583  0.51346580    -0.13620
C353        C  0.41171206  0.44056864  0.77887420     0.24390
C354        C  0.40699578  0.41770646  0.81361543    -0.23720
C355        C  0.40877262  0.38852659  0.79519060     0.19290
C356        C  0.41286253  0.38232357  0.74107177     0.24330
C357        C  0.41567396  0.40535347  0.70567533    -0.23670
C358        C  0.41630057  0.43444595  0.72527295     0.19230
F359        F  0.42005145  0.45699280  0.69179979    -0.13620
F360        F  0.41173209  0.46880028  0.79684850    -0.15990
F361        F  0.41169783  0.35413965  0.72267702    -0.15990
F362        F  0.40490179  0.36619789  0.82902945    -0.13620
C363        C  0.39298516  0.39445230  0.23418988     0.24390
C364        C  0.41701045  0.38659962  0.20297044    -0.23720
C365        C  0.44460057  0.37974138  0.22765106     0.19290
C366        C  0.44873771  0.38327983  0.28313757     0.24330
C367        C  0.42488374  0.39245221  0.31423664    -0.23670
C368        C  0.39671737  0.39707879  0.28921710     0.19230
F369        F  0.37314195  0.40642040  0.31736510    -0.13620
F370        F  0.36599417  0.40069302  0.21103632    -0.15990
F371        F  0.47613909  0.37874622  0.30604583    -0.15990
F372        F  0.46808853  0.37213286  0.19775799    -0.13620
C373        C  0.48284257  0.44531650  0.16799718     0.24390
C374        C  0.48905164  0.43916887  0.11456434    -0.23720
C375        C  0.01558162  0.45033204  0.09405726     0.19290
C376        C  0.03564924  0.46714447  0.12669594     0.24330
C377        C  0.02943676  0.47323379  0.18039506    -0.23670
C378        C  0.00312166  0.46150571  0.20096287     0.19230
F379        F  0.99567336  0.46765786  0.25186193    -0.13620
F380        F  0.45601723  0.43786298  0.18721284    -0.15990
F381        F  0.06070919  0.47819756  0.10536350    -0.15990
F382        F  0.02107685  0.44674170  0.04146842    -0.13620
C383        C  0.47173132  0.01766284  0.96841641     0.24390
C384        C  0.44506403  0.00670207  0.94368451    -0.23720
C385        C  0.43264664  0.52105041  0.89966397     0.19290
C386        C  0.44964819  0.04219556  0.87446675     0.24330
C387        C  0.47871513  0.04938820  0.89402558    -0.23670
C388        C  0.48850526  0.03893291  0.94361524     0.19230
F389        F  0.01650761  0.04538801  0.96324156    -0.13620
F390        F  0.48366715  0.00465385  0.01222427    -0.15990
F391        F  0.43937372  0.55264129  0.82731482    -0.15990
F392        F  0.40632321  0.51155249  0.87646886    -0.13620
C393        C  0.36821118  0.25872234  0.02024583     0.24390
C394        C  0.36198501  0.24877516  0.07134658    -0.23720
C395        C  0.35883869  0.27005018  0.11286901     0.19290
C396        C  0.36150338  0.30009329  0.10345104     0.24330
C397        C  0.36811615  0.30998093  0.05259932    -0.23670
C398        C  0.37136391  0.28882662  0.01107253     0.19230
F399        F  0.37775753  0.29730762  0.96120665    -0.13620
F400        F  0.37090655  0.23939783  0.97877693    -0.15990
F401        F  0.35908327  0.31943069  0.14501954    -0.15990
F402        F  0.35340951  0.26187040  0.16331958    -0.13620
C403        C  0.37115184  0.02000188  0.03291664     0.24390
C404        C  0.35030007  0.99733145  0.04052773    -0.23720
C405        C  0.32236116  0.00497753  0.06036592     0.19290
C406        C  0.31568893  0.03450032  0.07257224     0.24330
C407        C  0.33656661  0.05721191  0.06391545    -0.23670
C408        C  0.36420719  0.04942170  0.04306121     0.19230
F409        F  0.38553871  0.07017678  0.03581353    -0.13620
F410        F  0.39914883  0.01374319  0.01863309    -0.15990
F411        F  0.28884798  0.04083513  0.09315601    -0.15990
F412        F  0.30182606  0.48376723  0.06938117    -0.13620
C413        C  0.19339148  0.22184000  0.97659612     0.24390
C414        C  0.18770915  0.25137914  0.99017712    -0.23720
C415        C  0.19092810  0.26047407  0.04429566     0.19290
C416        C  0.20231862  0.24118699  0.08255762     0.24330
C417        C  0.21065477  0.21274617  0.06711438    -0.23670
C418        C  0.20427383  0.20282158  0.01466136     0.19230
F419        F  0.21145279  0.17522814  0.99888813    -0.13620
F420        F  0.18978251  0.21124251  0.92576688    -0.15990
F421        F  0.20774492  0.25111593  0.13346012    -0.15990
F422        F  0.18470634  0.28832650  0.05973970    -0.13620
C423        C  0.25468192  0.30423255  0.71650897     0.24390
C424        C  0.23891549  0.29104434  0.75770057    -0.23720
C425        C  0.23833089  0.26057660  0.76060114     0.19290
C426        C  0.25164786  0.24364455  0.72249004     0.24330
C427        C  0.26808916  0.25619253  0.68177861    -0.23670
C428        C  0.26949669  0.28678642  0.67876820     0.19230
F429        F  0.28476836  0.29960922  0.63966845    -0.13620
F430        F  0.25503871  0.33373908  0.71209396    -0.15990
F431        F  0.24658597  0.21446717  0.72418602    -0.15990
F432        F  0.22236961  0.24656040  0.79761183    -0.13620
C433        C  0.26735738  0.36432747  0.88161306     0.24390
C434        C  0.24413915  0.36278843  0.91815302    -0.23720
C435        C  0.25101463  0.36973726  0.97206224     0.19290
C436        C  0.27995235  0.37866452  0.98903541     0.24330
C437        C  0.30337151  0.38073971  0.95264327    -0.23670
C438        C  0.29665996  0.37290760  0.89868150     0.19230
F439        F  0.31820885  0.37410224  0.86207773    -0.13620
F440        F  0.26177020  0.35732466  0.82926539    -0.15990
F441        F  0.28465963  0.38582244  0.04158136    -0.15990
F442        F  0.22925693  0.36924779  0.00839793    -0.13620
C443        C  0.05242661  0.36829047  0.95307851     0.24390
C444        C  0.05561028  0.35091902  0.90651566    -0.23720
C445        C  0.02962324  0.34171442  0.87686164     0.19290
C446        C  0.50116152  0.35081543  0.89280794     0.24330
C447        C  0.99858133  0.36844333  0.93924924    -0.23670
C448        C  0.02445388  0.37622970  0.96961134     0.19230
F449        F  0.02263085  0.39085676  0.01708052    -0.13620
F450        F  0.07639862  0.37652270  0.98494192    -0.15990
F451        F  0.47643756  0.34296021  0.86267444    -0.15990
F452        F  0.03180856  0.32439206  0.83246790    -0.13620
C453        C  0.07199824  0.21643722  0.85612187     0.24390
C454        C  0.10295591  0.22192554  0.85812632    -0.23720
C455        C  0.12248287  0.19974883  0.84336157     0.19290
C456        C  0.11149664  0.17299240  0.82397757     0.24330
C457        C  0.08055673  0.16808851  0.81705869    -0.23670
C458        C  0.06074217  0.18941517  0.83561209     0.19230
F459        F  0.03074955  0.18499043  0.83019777    -0.13620
F460        F  0.05281385  0.23789063  0.86960068    -0.15990
F461        F  0.13134282  0.15229049  0.80946421    -0.15990
F462        F  0.15239186  0.20487359  0.84347771    -0.13620
C463        C  0.11214918  0.42441890  0.80282367     0.24390
C464        C  0.13057012  0.42170860  0.84949483    -0.23720
C465        C  0.13855636  0.44700455  0.87968926     0.19290
C466        C  0.12738294  0.47415246  0.86428348     0.24330
C467        C  0.10679405  0.47597461  0.82076516    -0.23670
C468        C  0.10127272  0.45128434  0.78840263     0.19230
F469        F  0.08835726  0.45379625  0.73931676    -0.13620
F470        F  0.10519719  0.40131171  0.76929526    -0.15990
F471        F  0.13840895  0.49856228  0.88929329    -0.15990
F472        F  0.15800913  0.44570312  0.92231041    -0.13620
C473        C  0.11244383  0.31194868  0.59161266     0.24390
C474        C  0.13847086  0.31938130  0.56474076    -0.23720
C475        C  0.16601489  0.32196978  0.59308166     0.19290
C476        C  0.16811254  0.31446028  0.64553981     0.24330
C477        C  0.14247777  0.30757929  0.67273308    -0.23670
C478        C  0.11440728  0.30689213  0.64629127     0.19230
F479        F  0.08926312  0.30156068  0.67330430    -0.13620
F480        F  0.08534225  0.31028370  0.56555149    -0.15990
F481        F  0.19538002  0.31544891  0.67043311    -0.15990
F482        F  0.19155162  0.33039342  0.56969926    -0.13620
C483        C  0.14260711  0.35607194  0.15648584     0.24390
C484        C  0.13100615  0.33175943  0.18231057    -0.23720
C485        C  0.10989389  0.31324771  0.15539441     0.19290
C486        C  0.10455094  0.31613914  0.10068049     0.24330
C487        C  0.11998714  0.33786643  0.07352347    -0.23670
C488        C  0.13620731  0.35971068  0.10288949     0.19230
F489        F  0.14918292  0.38268485  0.07884609    -0.13620
F490        F  0.16274790  0.37472634  0.18150106    -0.15990
F491        F  0.08687639  0.29595735  0.07381517    -0.15990
F492        F  0.09724364  0.29042666  0.18026750    -0.13620
C493        C  0.20436666  0.23035211  0.55361641     0.24390
C494        C  0.21711498  0.20395172  0.53778553    -0.23720
C495        C  0.21343530  0.19488129  0.48360902     0.19290
C496        C  0.19916908  0.21277017  0.44555926     0.24330
C497        C  0.18776156  0.24006415  0.46112724    -0.23670
C498        C  0.19001421  0.24795958  0.51603649     0.19230
F499        F  0.17944461  0.27368217  0.53356662    -0.13620
F500        F  0.20778070  0.24037326  0.60496295    -0.15990
F501        F  0.19628874  0.20322822  0.39391009    -0.15990
F502        F  0.22347244  0.16845583  0.46767106    -0.13620
C503        C  0.28296287  0.26065804  0.24490213     0.24390
C504        C  0.27988214  0.26409694  0.18905224    -0.23720
C505        C  0.26204920  0.28688639  0.17005689     0.19290
C506        C  0.24403459  0.30240660  0.20530643     0.24330
C507        C  0.24386063  0.29538092  0.25967869    -0.23670
C508        C  0.26454240  0.27560503  0.27972532     0.19230
F509        F  0.26489200  0.26867608  0.33209709    -0.13620
F510        F  0.30156980  0.24048903  0.26551546    -0.15990
F511        F  0.22456331  0.32221373  0.18544823    -0.15990
F512        F  0.25933282  0.29184601  0.11698265    -0.13620
C513        C  0.28790881  0.41818380  0.41878249     0.24390
C514        C  0.30849246  0.39668059  0.43338309    -0.23720
C515        C  0.29902791  0.36725144  0.43529975     0.19290
C516        C  0.26907133  0.35972818  0.42657251     0.24330
C517        C  0.24833361  0.38136807  0.41455435    -0.23670
C518        C  0.25790605  0.41046456  0.40894959     0.19230
F519        F  0.23792942  0.43154021  0.39658663    -0.13620
F520        F  0.29634898  0.44678084  0.41785946    -0.15990
F521        F  0.26032275  0.33127635  0.42931624    -0.15990
F522        F  0.31873989  0.34588622  0.44744722    -0.13620
C523        C  0.03455774  0.34760186  0.39769290     0.24390
C524        C  0.06065446  0.35755120  0.42602333    -0.23720
C525        C  0.05793093  0.36874672  0.47868913     0.19290
C526        C  0.03036104  0.36886295  0.50284129     0.24330
C527        C  0.00442558  0.35882734  0.47485406    -0.23670
C528        C  0.00666054  0.34866428  0.42162845     0.19230
F529        F  0.48192284  0.33900519  0.39325942    -0.13620
F530        F  0.03605909  0.33645973  0.34717204    -0.15990
F531        F  0.02904863  0.37949409  0.55364275    -0.15990
F532        F  0.08219352  0.37844510  0.50840020    -0.13620
C533        C  0.07030662  0.18454697  0.35364852     0.24390
C534        C  0.08091863  0.17612299  0.30342356    -0.23720
C535        C  0.09792242  0.19558488  0.27490551     0.19290
C536        C  0.10469279  0.22322425  0.29649393     0.24330
C537        C  0.09394578  0.23203298  0.34681736    -0.23670
C538        C  0.07666598  0.21244061  0.37516114     0.19230
F539        F  0.06575865  0.22026679  0.42320083    -0.13620
F540        F  0.05327533  0.16588456  0.38135779    -0.15990
F541        F  0.12225358  0.24107919  0.26812780    -0.15990
F542        F  0.10892518  0.18743210  0.22706188    -0.13620
C543        C  0.14293848  0.45194496  0.35136748     0.24390
C544        C  0.13912070  0.42670469  0.31825394    -0.23720
C545        C  0.13071933  0.42981554  0.26408155     0.19290
C546        C  0.12721686  0.45736954  0.24304926     0.24330
C547        C  0.13029343  0.48236041  0.27634665    -0.23670
C548        C  0.13817943  0.47952804  0.33057848     0.19230
F549        F  0.14042761  0.00342949  0.36376375    -0.13620
F550        F  0.15074474  0.45007324  0.40399127    -0.15990
F551        F  0.11822446  0.45940881  0.19095909    -0.15990
F552        F  0.12456545  0.40622683  0.23160208    -0.13620
O553        O  0.15555623  0.89477094  0.38631192    -0.79350
O554        O  0.11272203  0.77970606  0.33784763    -0.79370
O555        O  0.17032998  0.83269786  0.24544525    -0.79380
O556        O  0.09467607  0.82974058  0.37489082    -0.79320
O557        O  0.13203601  0.80746816  0.26455470    -0.79440
O558        O  0.11361552  0.86285641  0.43167212    -0.79360
O559        O  0.09512685  0.77157032  0.41380057    -0.79350
O560        O  0.14741036  0.87622341  0.30637721    -0.79380
C561        C  0.14646111  0.89761602  0.33843635     1.10340
C562        C  0.10110718  0.76162665  0.36792676     1.10230
C563        C  0.14455348  0.82399416  0.23360502     1.10360
C564        C  0.09099798  0.85125649  0.40646702     1.10240
O565        O  0.16161749  0.82979643  0.48489909    -0.79350
O566        O  0.19462919  0.78799972  0.28572547    -0.79420
O567        O  0.20485339  0.88004617  0.36046017    -0.79360
O568        O  0.15342582  0.77740403  0.44162597    -0.79340
O569        O  0.17525834  0.75963563  0.37306349    -0.79390
O570        O  0.20275515  0.85835412  0.43554057    -0.79360
O571        O  0.11592961  0.81591551  0.47791580    -0.79320
O572        O  0.21836565  0.82742160  0.31741766    -0.79390
Co573      Co  0.15862745  0.85873613  0.43003247     1.51530
Co574      Co  0.15483383  0.78665115  0.32016662     1.51690
Co575      Co  0.18220624  0.85131428  0.31380624     1.51570
Co576      Co  0.12507905  0.80303516  0.40387981     1.51470
O577        O  0.15939819  0.82616623  0.37001579    -1.41280
C578        C  0.13820869  0.82262361  0.50721658     1.10270
C579        C  0.21817528  0.80361500  0.29123546     1.10360
C580        C  0.21721790  0.87304058  0.40356243     1.10300
C581        C  0.17162223  0.75982863  0.42286961     1.10270
O582        O  0.14552001  0.85068622  0.99632458    -0.79350
O583        O  0.20948830  0.79596911  0.83323480    -0.79370
O584        O  0.16568714  0.79565513  0.95840837    -0.79380
O585        O  0.20181151  0.86485607  0.85667882    -0.79320
O586        O  0.17766287  0.76214964  0.89978605    -0.79440
O587        O  0.19637911  0.83996171  0.93052642    -0.79360
O588        O  0.20261006  0.82728881  0.77114654    -0.79350
O589        O  0.11280733  0.81307168  0.98846008    -0.79380
C590        C  0.12562204  0.83407883  0.01671860     1.10340
C591        C  0.21783982  0.80706042  0.79091739     1.10230
C592        C  0.17717401  0.77129184  0.94762176     1.10360
C593        C  0.21268892  0.85495297  0.90050402     1.10240
O594        O  0.15641852  0.88587318  0.90433018    -0.79350
O595        O  0.12875880  0.76110150  0.82428024    -0.79420
O596        O  0.09085033  0.81496371  0.87914528    -0.79360
O597        O  0.13993569  0.83203015  0.75314410    -0.79340
O598        O  0.16118337  0.78846927  0.75228282    -0.79390
O599        O  0.10849617  0.85419185  0.91396560    -0.79360
O600        O  0.13716896  0.87265614  0.82809959    -0.79320
O601        O  0.11683720  0.76537470  0.90845046    -0.79390
Co602      Co  0.15229196  0.84282871  0.92141210     1.51530
Co603      Co  0.16886681  0.77904792  0.82913449     1.51690
Co604      Co  0.12944307  0.80754219  0.91685582     1.51570
Co605      Co  0.16913898  0.84833718  0.80525514     1.51470
O606        O  0.15323168  0.81767356  0.85331148    -1.41280
C607        C  0.14252903  0.89266265  0.86167192     1.10270
C608        C  0.11570434  0.75143935  0.86404101     1.10360
C609        C  0.08594891  0.84007275  0.89588718     1.10300
C610        C  0.14580564  0.80819581  0.72986285     1.10270
O611        O  0.47032690  0.90721622  0.97247242    -0.79350
O612        O  0.33582454  0.90399760  0.01842469    -0.79370
O613        O  0.39817283  0.84536995  0.01355682    -0.79380
O614        O  0.37864934  0.93824709  0.88309037    -0.79320
O615        O  0.36749632  0.86242690  0.07433080    -0.79440
O616        O  0.42138732  0.91565115  0.90480249    -0.79360
O617        O  0.35604098  0.89359839  0.94207504    -0.79350
O618        O  0.44718418  0.86608830  0.96412329    -0.79380
C619        C  0.47022096  0.88108439  0.95663368     1.10340
C620        C  0.33353724  0.89277095  0.97168646     1.10230
C621        C  0.37726686  0.84116348  0.04509969     1.10360
C622        C  0.40191496  0.92442347  0.86955081     1.10240
O623        O  0.45755363  0.95791643  0.95164989    -0.79350
O624        O  0.40146697  0.91163675  0.12703747    -0.79420
O625        O  0.46533163  0.89785449  0.06832395    -0.79360
O626        O  0.35507089  0.95393863  0.98459249    -0.79340
O627        O  0.37045572  0.95159782  0.06865323    -0.79390
O628        O  0.44838091  0.94249168  0.05352098    -0.79360
O629        O  0.40998498  0.96713860  0.96054762    -0.79320
O630        O  0.42056124  0.86844974  0.11394953    -0.79390
Co631      Co  0.43351753  0.92976834  0.98230740     1.51530
Co632      Co  0.37092079  0.90768595  0.06970815     1.51690
Co633      Co  0.43101357  0.87148348  0.03715853     1.51570
Co634      Co  0.38580556  0.92672615  0.95398860     1.51470
O635        O  0.40385274  0.90565969  0.01698212    -1.41280
C636        C  0.43692760  0.97601890  0.95216134     1.10270
C637        C  0.41349726  0.88912212  0.14508848     1.10360
C638        C  0.46595979  0.92561117  0.07814054     1.10300
C639        C  0.35863405  0.96598620  0.03088379     1.10270
O640        O  0.45263745  0.87125530  0.46959146    -0.79350
O641        O  0.34628373  0.89096574  0.49718423    -0.79370
O642        O  0.41209702  0.84897987  0.52217780    -0.79380
O643        O  0.40597965  0.90012955  0.40077191    -0.79320
O644        O  0.37567921  0.86126214  0.57342608    -0.79440
O645        O  0.45420119  0.91000250  0.39113521    -0.79360
O646        O  0.35303080  0.92593197  0.44024883    -0.79350
O647        O  0.47152814  0.86097142  0.54920806    -0.79380
C648        C  0.47499180  0.86292821  0.49894446     1.10340
C649        C  0.33776210  0.90495009  0.45724813     1.10230
C650        C  0.39051101  0.84148773  0.54980212     1.10360
C651        C  0.42906941  0.90051137  0.37122171     1.10240
O652        O  0.43539869  0.95720525  0.44792012    -0.79350
O653        O  0.39233305  0.91616594  0.62489853    -0.79420
O654        O  0.45938840  0.91734287  0.57624169    -0.79360
O655        O  0.38827462  0.96709018  0.49956906    -0.79340
O656        O  0.35701016  0.94727806  0.55486237    -0.79390
O657        O  0.47579699  0.92973998  0.49948840    -0.79360
O658        O  0.39672120  0.95917059  0.39284657    -0.79320
O659        O  0.42541519  0.88042875  0.62306159    -0.79390
Co660      Co  0.43893056  0.91337287  0.46116338     1.51530
Co661      Co  0.36986617  0.90456893  0.55969152     1.51690
Co662      Co  0.43611457  0.88424515  0.54622723     1.51570
Co663      Co  0.39667950  0.93315229  0.45361829     1.51470
O664        O  0.40741019  0.91153859  0.51989212    -1.41280
C665        C  0.42266705  0.96849724  0.40695857     1.10270
C666        C  0.41134481  0.90024198  0.64823048     1.10360
C667        C  0.47660045  0.93255212  0.54982475     1.10300
C668        C  0.36907691  0.96976121  0.53465812     1.10270
O669        O  0.23664465  0.69623111  0.14708275    -0.79350
O670        O  0.34296223  0.60918931  0.05656135    -0.79370
O671        O  0.30364615  0.69956666  0.01397204    -0.79380
O672        O  0.27397680  0.61754223  0.18549307    -0.79320
O673        O  0.31338924  0.65309793  0.00073980    -0.79440
O674        O  0.25436235  0.64061143  0.11910239    -0.79360
O675        O  0.31750008  0.59282855  0.12442004    -0.79350
O676        O  0.25702139  0.68927800  0.07023338    -0.79380
C677        C  0.23482306  0.69809408  0.09667228     1.10340
C678        C  0.33152546  0.58829915  0.08208977     1.10230
C679        C  0.30393870  0.67691115  0.98234191     1.10360
C680        C  0.25129613  0.62273028  0.15532863     1.10240
O681        O  0.27380736  0.66848341  0.22342728    -0.79350
O682        O  0.35614344  0.69674855  0.04588054    -0.79420
O683        O  0.28710245  0.73962644  0.10239993    -0.79360
O684        O  0.36270514  0.62880264  0.17789427    -0.79340
O685        O  0.37937881  0.65356492  0.10999947    -0.79390
O686        O  0.29337721  0.71469086  0.17454554    -0.79360
O687        O  0.32089904  0.65799670  0.23182971    -0.79320
O688        O  0.33998231  0.71143808  0.12026526    -0.79390
Co689      Co  0.27515954  0.67670848  0.14376339     1.51530
Co690      Co  0.34514770  0.65335917  0.05788077     1.51690
Co691      Co  0.29951332  0.69863007  0.09670540     1.51570
Co692      Co  0.31830801  0.62694116  0.17514502     1.51470
O693        O  0.31296555  0.65786521  0.11609823    -1.41280
C694        C  0.29759144  0.66725593  0.25258966     1.10270
C695        C  0.35440578  0.71725469  0.08063948     1.10360
C696        C  0.28800583  0.73924149  0.15327566     1.10300
C697        C  0.38374367  0.64085795  0.15379494     1.10270
O698        O  0.23793941  0.68751057  0.62342153    -0.79350
O699        O  0.34206146  0.61015125  0.55223819    -0.79370
O700        O  0.31516998  0.70392051  0.51371038    -0.79380
O701        O  0.28405211  0.61549702  0.68009772    -0.79320
O702        O  0.31928769  0.65704848  0.50162526    -0.79440
O703        O  0.26488328  0.63389532  0.60760443    -0.79360
O704        O  0.33594675  0.59659199  0.63588904    -0.79350
O705        O  0.26578612  0.68538954  0.55450575    -0.79380
C706        C  0.24035793  0.69076392  0.57348162     1.10340
C707        C  0.34015829  0.59062462  0.58719579     1.10230
C708        C  0.31385012  0.68153619  0.48236769     1.10360
C709        C  0.26246772  0.61680021  0.64545371     1.10240
O710        O  0.27250106  0.66491793  0.71371589    -0.79350
O711        O  0.36597531  0.69656158  0.55505269    -0.79420
O712        O  0.28770080  0.73856947  0.59671175    -0.79360
O713        O  0.37015415  0.64185824  0.68849877    -0.79340
O714        O  0.38593800  0.64559004  0.60577467    -0.79390
O715        O  0.29107973  0.71148465  0.66661259    -0.79360
O716        O  0.32007999  0.66390830  0.73305926    -0.79320
O717        O  0.34278664  0.71470660  0.62238154    -0.79390
Co718      Co  0.27867009  0.67234084  0.63343302     1.51530
Co719      Co  0.35090104  0.65302085  0.55768863     1.51690
Co720      Co  0.30503209  0.69913000  0.59222190     1.51570
Co721      Co  0.32706071  0.63190350  0.67979124     1.51470
O722        O  0.32031633  0.65944072  0.61632019    -1.41280
C723        C  0.29397328  0.66771112  0.74863767     1.10270
C724        C  0.36168587  0.71814420  0.58761742     1.10360
C725        C  0.28353335  0.73557096  0.64626640     1.10300
C726        C  0.39070440  0.64153099  0.65507693     1.10270
O727        O  0.10065411  0.02419148  0.28767982    -0.79350
O728        O  0.06472850  0.64223660  0.23503804    -0.79370
O729        O  0.12445308  0.57506758  0.24114885    -0.79380
O730        O  0.07708880  0.57678688  0.36383326    -0.79320
O731        O  0.10676755  0.60780241  0.18487237    -0.79440
O732        O  0.05629039  0.53409280  0.35028889    -0.79360
O733        O  0.07820713  0.62603535  0.31340855    -0.79350
O734        O  0.12001250  0.51695227  0.20947552    -0.79380
C735        C  0.11772591  0.00954351  0.25734575     1.10340
C736        C  0.07489314  0.64664035  0.28229084     1.10230
C737        C  0.12882044  0.59620726  0.21054550     1.10360
C738        C  0.07006592  0.55236629  0.38137848     1.10240
O739        O  0.01345335  0.54063272  0.25983558    -0.79350
O740        O  0.05509189  0.57366352  0.13653333    -0.79420
O741        O  0.05963931  0.01718139  0.19031842    -0.79360
O742        O  0.01499368  0.61957370  0.27849447    -0.79340
O743        O  0.01804787  0.60459896  0.19424579    -0.79390
O744        O  0.04947751  0.99335341  0.26323900    -0.79360
O745        O  0.01348321  0.56801833  0.33239312    -0.79320
O746        O  0.09901093  0.55636703  0.14294160    -0.79390
Co747      Co  0.05693816  0.53446316  0.26923383     1.51530
Co748      Co  0.06125646  0.60509101  0.19089650     1.51690
Co749      Co  0.09210090  0.54745778  0.21966935     1.51570
Co750      Co  0.04727912  0.59648979  0.31801241     1.51470
O751        O  0.06351799  0.57646431  0.25136876    -1.41280
C752        C  0.00108965  0.54827558  0.30225063     1.10270
C753        C  0.07789318  0.56524741  0.11368739     1.10360
C754        C  0.04785711  0.99478072  0.21271606     1.10300
C755        C  0.00375366  0.61659229  0.23099769     1.10270
O756        O  0.06529737  0.00552413  0.79532193    -0.79350
O757        O  0.08696599  0.63177949  0.75086662    -0.79370
O758        O  0.13740640  0.56465179  0.73243776    -0.79380
O759        O  0.07663185  0.59350424  0.85693138    -0.79320
O760        O  0.11983648  0.59942387  0.68068719    -0.79440
O761        O  0.06709524  0.54879887  0.86241413    -0.79360
O762        O  0.04640797  0.62823218  0.79768834    -0.79350
O763        O  0.10981105  0.02426651  0.79099875    -0.79380
C764        C  0.09329795  0.00349971  0.80392016     1.10340
C765        C  0.07029940  0.64166084  0.78668766     1.10230
C766        C  0.14178980  0.58585535  0.70228360     1.10360
C767        C  0.07760921  0.57167798  0.88470810     1.10240
O768        O  0.01168696  0.53504209  0.82758000    -0.79350
O769        O  0.06323523  0.57678596  0.63322304    -0.79420
O770        O  0.06924191  0.01000774  0.69666958    -0.79360
O771        O  0.01265470  0.58166750  0.74657651    -0.79340
O772        O  0.03233276  0.61434372  0.69607610    -0.79390
O773        O  0.02778547  0.03268629  0.71813918    -0.79360
O774        O  0.01365897  0.58222153  0.85372173    -0.79320
O775        O  0.10196830  0.54836095  0.63948384    -0.79390
Co776      Co  0.04694685  0.54524876  0.78765379     1.51530
Co777      Co  0.07548262  0.60330294  0.69367691     1.51690
Co778      Co  0.10296524  0.53863807  0.71799160     1.51570
Co779      Co  0.04588162  0.58458116  0.80048118     1.51470
O780        O  0.07647927  0.57077719  0.74760170    -1.41280
C781        C  0.50178042  0.55636529  0.85615589     1.10270
C782        C  0.08122338  0.55969424  0.61148910     1.10360
C783        C  0.04104208  0.01353792  0.69080622     1.10300
C784        C  0.00949352  0.60147546  0.71293256     1.10270
C785        C  0.10407185  0.54974037  0.52208245     0.24390
C786        C  0.07856882  0.55412504  0.55254991    -0.23720
C787        C  0.05054868  0.55556764  0.52538210     0.19290
C788        C  0.04779781  0.55131316  0.47001195     0.24330
C789        C  0.07322198  0.54815523  0.43955651    -0.23670
C790        C  0.10147658  0.54779945  0.46596423     0.19230
F791        F  0.12661090  0.54699043  0.43738417    -0.13620
F792        F  0.13171440  0.54991519  0.54618403    -0.15990
F793        F  0.02035054  0.55306410  0.44558449    -0.15990
F794        F  0.02587967  0.56311971  0.55172404    -0.13620
C795        C  0.10147336  0.55420220  0.97050302     0.24390
C796        C  0.08308845  0.57385485  0.94330586    -0.23720
C797        C  0.06491900  0.59241650  0.97317682     0.19290
C798        C  0.06339971  0.58963741  0.02843204     0.24330
C799        C  0.08045741  0.56850607  0.05531555    -0.23670
C800        C  0.10036450  0.55152999  0.02599066     0.19230
F801        F  0.11799077  0.53165537  0.05060340    -0.13620
F802        F  0.12087634  0.53793643  0.94341363    -0.15990
F803        F  0.04490255  0.60751197  0.05545898    -0.15990
F804        F  0.04690743  0.61190293  0.94835510    -0.13620
C805        C  0.42484989  0.60681743  0.70023559     0.24390
C806        C  0.42107985  0.63311433  0.67312776    -0.23720
C807        C  0.44643941  0.64843882  0.65718343     0.19290
C808        C  0.47515008  0.63810400  0.66951146     0.24330
C809        C  0.47905720  0.61165072  0.69676207    -0.23670
C810        C  0.45343282  0.59596600  0.71107444     0.19230
F811        F  0.45593284  0.56957767  0.73407687    -0.13620
F812        F  0.40068736  0.59070582  0.71363819    -0.15990
F813        F  0.49904240  0.65418926  0.65487544    -0.15990
F814        F  0.44339414  0.67356710  0.62997402    -0.13620
C815        C  0.22710064  0.58747236  0.70023522     0.24390
C816        C  0.23214487  0.60481855  0.65582315    -0.23720
C817        C  0.20704820  0.61487358  0.62608500     0.19290
C818        C  0.17807021  0.60948223  0.64226135     0.24330
C819        C  0.17295924  0.59296415  0.68762618    -0.23670
C820        C  0.19788404  0.58141750  0.71573177     0.19230
F821        F  0.19415775  0.56462739  0.75892304    -0.13620
F822        F  0.25041886  0.57671189  0.72932957    -0.15990
F823        F  0.15498321  0.62042714  0.61275764    -0.15990
F824        F  0.21023619  0.63090933  0.58179320    -0.13620
C825        C  0.28136371  0.64957694  0.83970786     0.24390
C826        C  0.28968978  0.67294496  0.80773777    -0.23720
C827        C  0.29964072  0.69915741  0.83429567     0.19290
C828        C  0.30202710  0.70154840  0.89097570     0.24330
C829        C  0.29547686  0.67743522  0.92293107    -0.23670
C830        C  0.28433123  0.65168301  0.89603830     0.19230
F831        F  0.27725195  0.62783029  0.92437983    -0.13620
F832        F  0.27233118  0.62373668  0.81619723    -0.15990
F833        F  0.31282130  0.72681409  0.91427649    -0.15990
F834        F  0.30834300  0.72217069  0.80519339    -0.13620
C835        C  0.27957725  0.66051963  0.34529849     0.24390
C836        C  0.29860779  0.67491484  0.31094036    -0.23720
C837        C  0.32173029  0.69301315  0.33388552     0.19290
C838        C  0.32465678  0.69781747  0.38961221     0.24330
C839        C  0.30625613  0.68258313  0.42396488    -0.23670
C840        C  0.28435313  0.66317639  0.40095361     0.19230
F841        F  0.26918592  0.64489221  0.43231134    -0.13620
F842        F  0.25834530  0.64146227  0.32502814    -0.15990
F843        F  0.34741024  0.71501718  0.41014129    -0.15990
F844        F  0.34237629  0.70507773  0.30243710    -0.13620
C845        C  0.43934304  0.64247539  0.14394352     0.24390
C846        C  0.41482165  0.63888270  0.17681260    -0.23720
C847        C  0.42046198  0.63157804  0.23073288     0.19290
C848        C  0.44969743  0.62622089  0.25004930     0.24330
C849        C  0.47372196  0.62767054  0.21572737    -0.23670
C850        C  0.46828497  0.63693783  0.16310392     0.19230
F851        F  0.49108900  0.63990464  0.12926656    -0.13620
F852        F  0.43537324  0.64983628  0.09207182    -0.15990
F853        F  0.45424386  0.61810867  0.30135619    -0.15990
F854        F  0.39766224  0.62899322  0.26460829    -0.13620
C855        C  0.16646502  0.61682612  0.14930071     0.24390
C856        C  0.16024014  0.60411168  0.19825506    -0.23720
C857        C  0.18455212  0.59547477  0.23145920     0.19290
C858        C  0.21418065  0.60002715  0.21655125     0.24330
C859        C  0.22033788  0.61316754  0.16788515    -0.23670
C860        C  0.19592579  0.62104143  0.13417200     0.19230
F861        F  0.20036355  0.63310031  0.08612764    -0.13620
F862        F  0.14401272  0.62443906  0.11476811    -0.15990
F863        F  0.23677542  0.59202495  0.25039870    -0.15990
F864        F  0.17974981  0.58272025  0.27874789    -0.13620
C865        C  0.01242960  0.94341577  0.62449478     0.24390
C866        C  0.49627709  0.95346443  0.57978494    -0.23720
C867        C  0.49232203  0.98371835  0.57451852     0.19290
C868        C  0.00525888  0.00344897  0.61280583     0.24330
C869        C  0.02370977  0.99327657  0.65453796    -0.23670
C870        C  0.02572809  0.96310351  0.66152899     0.19230
F871        F  0.03723197  0.95265472  0.70760931    -0.13620
F872        F  0.01344801  0.91441982  0.63456701    -0.15990
F873        F  0.99797533  0.53203545  0.61171051    -0.15990
F874        F  0.47387444  0.99389130  0.53526933    -0.13620
C875        C  0.47100735  0.98444213  0.37491250     0.24390
C876        C  0.44030826  0.48960441  0.37686302    -0.23720
C877        C  0.42861062  0.51434485  0.35147582     0.19290
C878        C  0.44799303  0.53394344  0.32615660     0.24330
C879        C  0.47884374  0.52828727  0.32487828    -0.23670
C880        C  0.48963147  0.00304783  0.34901716     0.19230
F881        F  0.01859137  0.99555413  0.34794383    -0.13620
F882        F  0.48361972  0.96085746  0.39800585    -0.15990
F883        F  0.43676066  0.55815969  0.30319996    -0.15990
F884        F  0.39900772  0.52006559  0.35291064    -0.13620
C885        C  0.36205420  0.77198753  0.61316317     0.24390
C886        C  0.37280410  0.74907333  0.58005773    -0.23720
C887        C  0.39034203  0.75710576  0.53704339     0.19290
C888        C  0.39630036  0.78692543  0.52700441     0.24330
C889        C  0.38420912  0.80959194  0.55887211    -0.23590
C890        C  0.36716821  0.80142946  0.60219443     0.19230
F891        F  0.35547000  0.82202103  0.63505226    -0.13620
F892        F  0.34574475  0.76623578  0.65637373    -0.15990
F893        F  0.41347023  0.79353391  0.48534435    -0.15990
F894        F  0.40140089  0.73621245  0.50414308    -0.13620
C895        C  0.33432797  0.50724799  0.57582528     0.24390
C896        C  0.36094802  0.50045713  0.55008294    -0.23720
C897        C  0.37987734  0.52392894  0.53614618     0.19290
C898        C  0.37214763  0.55295627  0.54629982     0.24330
C899        C  0.34569880  0.55969467  0.57176082    -0.23670
C900        C  0.32696843  0.53661191  0.58710546     0.19230
F901        F  0.30132315  0.54254550  0.61225511    -0.13620
F902        F  0.31520907  0.98563029  0.58932846    -0.15990
F903        F  0.39144450  0.57461780  0.53346988    -0.15990
F904        F  0.40650120  0.51899715  0.51346287    -0.13620
C905        C  0.41171306  0.94056814  0.77887402     0.24390
C906        C  0.40699576  0.91770590  0.81361461    -0.23720
C907        C  0.40877156  0.88852603  0.79518932     0.19290
C908        C  0.41286144  0.88232317  0.74107049     0.24330
C909        C  0.41567385  0.90535319  0.70567463    -0.23670
C910        C  0.41630155  0.93444557  0.72527277     0.19230
F911        F  0.42005305  0.95699248  0.69179997    -0.13620
F912        F  0.41173384  0.96879971  0.79684887    -0.15990
F913        F  0.41169549  0.85413938  0.72267505    -0.15990
F914        F  0.40489962  0.86619730  0.82902767    -0.13620
C915        C  0.39298522  0.89445273  0.23418829     0.24390
C916        C  0.41701230  0.88660524  0.20296921    -0.23720
C917        C  0.44460430  0.87975369  0.22764974     0.19290
C918        C  0.44874031  0.88329150  0.28313652     0.24330
C919        C  0.42488400  0.89245794  0.31423557    -0.23670
C920        C  0.39671672  0.89707942  0.28921556     0.19230
F921        F  0.37313917  0.90641599  0.31736322    -0.13620
F922        F  0.36599289  0.90068808  0.21103427    -0.15990
F923        F  0.47614255  0.87876269  0.30604533    -0.15990
F924        F  0.46809411  0.87215092  0.19775666    -0.13620
C925        C  0.48282716  0.94533167  0.16799568     0.24390
C926        C  0.48904747  0.93917076  0.11457203    -0.23720
C927        C  0.01558574  0.95032283  0.09407759     0.19290
C928        C  0.03565045  0.96713685  0.12671995     0.24330
C929        C  0.02942680  0.97323895  0.18040975    -0.23670
C930        C  0.00310291  0.96152284  0.20096505     0.19230
F931        F  0.99564357  0.96768899  0.25185308    -0.13620
F932        F  0.45599531  0.93788802  0.18719712    -0.15990
F933        F  0.06071901  0.97817881  0.10539977    -0.15990
F934        F  0.02109221  0.94672102  0.04149550    -0.13620
C935        C  0.47173280  0.51766326  0.96841237     0.24390
C936        C  0.44506513  0.50670241  0.94368202    -0.23720
C937        C  0.43264540  0.02105084  0.89966756     0.19290
C938        C  0.44964971  0.54219428  0.87446113     0.24330
C939        C  0.47871685  0.54938706  0.89401901    -0.23670
C940        C  0.48850713  0.53893224  0.94360899     0.19230
F941        F  0.01650982  0.54538668  0.96323401    -0.13620
F942        F  0.48366853  0.50465531  0.01222134    -0.15990
F943        F  0.43937231  0.05264343  0.82732108    -0.15990
F944        F  0.40632236  0.01155279  0.87647104    -0.13620
C945        C  0.36821539  0.75872315  0.02024963     0.24390
C946        C  0.36199114  0.74877589  0.07135111    -0.23720
C947        C  0.35884469  0.77005079  0.11287368     0.19290
C948        C  0.36150747  0.80009394  0.10345512     0.24330
C949        C  0.36811827  0.80998164  0.05260259    -0.23670
C950        C  0.37136606  0.78882746  0.01107566     0.19230
F951        F  0.37775777  0.79730865  0.96120901    -0.13620
F952        F  0.37091061  0.73939868  0.97878062    -0.15990
F953        F  0.35908748  0.81943137  0.14502361    -0.15990
F954        F  0.35341707  0.76187082  0.16332478    -0.13620
C955        C  0.37115856  0.52000124  0.03292644     0.24390
C956        C  0.35030470  0.49733192  0.04053229    -0.23720
C957        C  0.32236497  0.50497931  0.06036538     0.19290
C958        C  0.31569387  0.53450234  0.07257168     0.24330
C959        C  0.33657341  0.55721287  0.06391911    -0.23670
C960        C  0.36421491  0.54942140  0.04307009     0.19230
F961        F  0.38554800  0.57017557  0.03582694    -0.13620
F962        F  0.39915632  0.51374100  0.01864884    -0.15990
F963        F  0.28885217  0.54083847  0.09315122    -0.15990
F964        F  0.30182410  0.98376445  0.06938618    -0.13620
C965        C  0.19339820  0.72183987  0.97658910     0.24390
C966        C  0.18771143  0.75137801  0.99017108    -0.23720
C967        C  0.19092899  0.76047247  0.04429013     0.19290
C968        C  0.20232192  0.74118626  0.08255170     0.24330
C969        C  0.21066181  0.71274663  0.06710780    -0.23670
C970        C  0.20428290  0.70282228  0.01465389     0.19230
F971        F  0.21146526  0.67522993  0.99887972    -0.13620
F972        F  0.18979120  0.71124266  0.92575930    -0.15990
F973        F  0.20774614  0.75111500  0.13345489    -0.15990
F974        F  0.18470314  0.78832375  0.05973525    -0.13620
C975        C  0.25468121  0.80423189  0.71650618     0.24390
C976        C  0.23891579  0.79104374  0.75769901    -0.23720
C977        C  0.23833350  0.76057616  0.76060291     0.19290
C978        C  0.25165143  0.74364403  0.72249327     0.24330
C979        C  0.26809152  0.75619199  0.68178027    -0.23670
C980        C  0.26949703  0.78678580  0.67876697     0.19230
F981        F  0.28476758  0.79960849  0.63966571    -0.13620
F982        F  0.25503612  0.83373828  0.71208862    -0.15990
F983        F  0.24659119  0.71446652  0.72419182    -0.15990
F984        F  0.22237331  0.74655993  0.79761504    -0.13620
C985        C  0.26735659  0.86432660  0.88160835     0.24390
C986        C  0.24413792  0.86278686  0.91814740    -0.23720
C987        C  0.25101307  0.86973514  0.97205708     0.19290
C988        C  0.27995071  0.87866266  0.98903135     0.24330
C989        C  0.30337027  0.88073854  0.95264005    -0.23670
C990        C  0.29665905  0.87290688  0.89867790     0.19230
F991        F  0.31820821  0.87410206  0.86207471    -0.13620
F992        F  0.26176996  0.85732425  0.82926035    -0.15990
F993        F  0.28465756  0.88582008  0.04157760    -0.15990
F994        F  0.22925510  0.86924483  0.00839223    -0.13620
C995        C  0.05242432  0.86828129  0.95308129     0.24390
C996        C  0.05560816  0.85091623  0.90651077    -0.23720
C997        C  0.02962132  0.84171783  0.87684990     0.19290
C998        C  0.50115985  0.85081953  0.89279681     0.24330
C999        C  0.99857960  0.86844125  0.93924590    -0.23670
C1000       C  0.02445163  0.87622045  0.96961493     0.19230
F1001       F  0.02262786  0.89084041  0.01709091    -0.13620
F1002       F  0.07639608  0.87650744  0.98495015    -0.15990
F1003       F  0.47643627  0.84297124  0.86265642    -0.15990
F1004       F  0.03180675  0.82440162  0.83244835    -0.13620
C1005       C  0.07199667  0.71643576  0.85610953     0.24390
C1006       C  0.10295455  0.72192291  0.85811993    -0.23720
C1007       C  0.12248153  0.69974548  0.84335874     0.19290
C1008       C  0.11149523  0.67298973  0.82397120     0.24330
C1009       C  0.08055543  0.66808711  0.81704657    -0.23670
C1010       C  0.06074064  0.68941424  0.83559731     0.19230
F1011       F  0.03074806  0.68499048  0.83017807    -0.13620
F1012       F  0.05281233  0.73788984  0.86958510    -0.15990
F1013       F  0.13134133  0.65228717  0.80946054    -0.15990
F1014       F  0.15239086  0.70486899  0.84348172    -0.13620
C1015       C  0.11214535  0.92441874  0.80282280     0.24390
C1016       C  0.13056921  0.92170803  0.84949003    -0.23720
C1017       C  0.13855989  0.94700420  0.87968075     0.19290
C1018       C  0.12738814  0.97415284  0.86427484     0.24330
C1019       C  0.10679418  0.97597500  0.82076386    -0.23670
C1020       C  0.10126924  0.95128456  0.78840355     0.19230
F1021       F  0.08835218  0.95379690  0.73931924    -0.13620
F1022       F  0.10519055  0.90131164  0.76929583    -0.15990
F1023       F  0.13842243  0.99856300  0.88927307    -0.15990
F1024       F  0.15801622  0.94570226  0.92229671    -0.13620
C1025       C  0.11244107  0.81194221  0.59160908     0.24390
C1026       C  0.13846709  0.81937796  0.56473703    -0.23720
C1027       C  0.16601097  0.82197010  0.59307757     0.19290
C1028       C  0.16810998  0.81446048  0.64553529     0.24330
C1029       C  0.14247620  0.80757611  0.67272856    -0.23670
C1030       C  0.11440554  0.80688573  0.64628752     0.19230
F1031       F  0.08926224  0.80155130  0.67330114    -0.13620
F1032       F  0.08533953  0.81027393  0.56554823    -0.15990
F1033       F  0.19537760  0.81545233  0.67042813    -0.15990
F1034       F  0.19154645  0.83039761  0.56969534    -0.13620
C1035       C  0.14264464  0.85605042  0.15646499     0.24390
C1036       C  0.13102422  0.83174950  0.18229807    -0.23720
C1037       C  0.10989487  0.81325276  0.15538964     0.19290
C1038       C  0.10454812  0.81614749  0.10067680     0.24330
C1039       C  0.11999386  0.83786648  0.07351562    -0.23670
C1040       C  0.13623352  0.85969872  0.10287684     0.19230
F1041       F  0.14922004  0.88266680  0.07883272    -0.13620
F1042       F  0.16281517  0.87468213  0.18145900    -0.15990
F1043       F  0.08685722  0.79597752  0.07381593    -0.15990
F1044       F  0.09722915  0.79044196  0.18026829    -0.13620
C1045       C  0.20436909  0.73035275  0.55361925     0.24390
C1046       C  0.21711520  0.70395078  0.53779072    -0.23720
C1047       C  0.21343259  0.69487781  0.48361600     0.19290
C1048       C  0.19916523  0.71276539  0.44556542     0.24330
C1049       C  0.18775973  0.74006069  0.46113080    -0.23670
C1050       C  0.19001594  0.74795919  0.51603833     0.19230
F1051       F  0.17945005  0.77368410  0.53356488    -0.13620
F1052       F  0.20778624  0.74037636  0.60496383    -0.15990
F1053       F  0.19628203  0.70322105  0.39391792    -0.15990
F1054       F  0.22346800  0.66845116  0.46768067    -0.13620
C1055       C  0.28296988  0.76065832  0.24490561     0.24390
C1056       C  0.27988680  0.76409706  0.18905592    -0.23720
C1057       C  0.26205015  0.78688427  0.17006278     0.19290
C1058       C  0.24403468  0.80240199  0.20531451     0.24330
C1059       C  0.24386332  0.79537602  0.25968704    -0.23670
C1060       C  0.26454845  0.77560265  0.27973117     0.19230
F1061       F  0.26490081  0.76867347  0.33210290    -0.13620
F1062       F  0.30158063  0.74049188  0.26551650    -0.15990
F1063       F  0.22456053  0.82220702  0.18545820    -0.15990
F1064       F  0.25933129  0.79184382  0.11698876    -0.13620
C1065       C  0.28790549  0.91817953  0.41877737     0.24390
C1066       C  0.30848872  0.89667735  0.43338478    -0.23720
C1067       C  0.29902409  0.86724851  0.43530862     0.19290
C1068       C  0.26906761  0.85972489  0.42658216     0.24330
C1069       C  0.24833024  0.88136404  0.41455752    -0.23670
C1070       C  0.25790291  0.91045987  0.40894527     0.19230
F1071       F  0.23792664  0.93153467  0.39657531    -0.13620
F1072       F  0.29634585  0.94677630  0.41784680    -0.15990
F1073       F  0.26031888  0.83127343  0.42933241    -0.15990
F1074       F  0.31873587  0.84588414  0.44746236    -0.13620
C1075       C  0.03455407  0.84759976  0.39768855     0.24390
C1076       C  0.06065148  0.85754774  0.42601837    -0.23720
C1077       C  0.05792867  0.86874475  0.47868345     0.19290
C1078       C  0.03035879  0.86886372  0.50283553     0.24330
C1079       C  0.00442266  0.85882938  0.47484903    -0.23670
C1080       C  0.00665686  0.84866511  0.42162388     0.19230
F1081       F  0.48191836  0.83900789  0.39325501    -0.13620
F1082       F  0.03605469  0.83645644  0.34716841    -0.15990
F1083       F  0.02904706  0.87949652  0.55363609    -0.15990
F1084       F  0.08219183  0.87844215  0.50839403    -0.13620
C1085       C  0.07031378  0.68453840  0.35364911     0.24390
C1086       C  0.08092638  0.67611501  0.30342436    -0.23720
C1087       C  0.09792850  0.69557798  0.27490562     0.19290
C1088       C  0.10469613  0.72321816  0.29649265     0.24330
C1089       C  0.09394800  0.73202654  0.34681536    -0.23670
C1090       C  0.07667038  0.71243284  0.37516035     0.19230
F1091       F  0.06576226  0.72025857  0.42319965    -0.13620
F1092       F  0.05328410  0.66587485  0.38135896    -0.15990
F1093       F  0.12225499  0.74107439  0.26812547    -0.15990
F1094       F  0.10893177  0.68742574  0.22706212    -0.13620
C1095       C  0.14286069  0.95193061  0.35141535     0.24390
C1096       C  0.13911927  0.92670174  0.31825236    -0.23720
C1097       C  0.13079379  0.92983010  0.26405126     0.19290
C1098       C  0.12729119  0.95738996  0.24304357     0.24330
C1099       C  0.13028866  0.98236895  0.27638722    -0.23670
C1100       C  0.13810196  0.97951824  0.33064580     0.19230
F1101       F  0.14057984  0.50345409  0.36365091    -0.13620
F1102       F  0.15058479  0.95004244  0.40407013    -0.15990
F1103       F  0.11837535  0.95944172  0.19091833    -0.15990
F1104       F  0.12471399  0.90625152  0.23151096    -0.13620
O1105       O  0.65555997  0.39477754  0.38631853    -0.79350
O1106       O  0.61272278  0.27971134  0.33785073    -0.79370
O1107       O  0.67032190  0.33271045  0.24544022    -0.79380
O1108       O  0.59467960  0.32974633  0.37489449    -0.79320
O1109       O  0.63203263  0.30747628  0.26456320    -0.79440
O1110       O  0.61361863  0.36286158  0.43167764    -0.79360
O1111       O  0.59512982  0.27157584  0.41380500    -0.79350
O1112       O  0.64740739  0.37622782  0.30638789    -0.79380
C1113       C  0.64646182  0.39762128  0.33844458     1.10340
C1114       C  0.60110824  0.26163216  0.36793040     1.10230
C1115       C  0.64454430  0.32400496  0.23361080     1.10360
C1116       C  0.59100122  0.35126159  0.40647186     1.10240
O1117       O  0.66162157  0.32980142  0.48490302    -0.79350
O1118       O  0.69462648  0.28800771  0.28571845    -0.79420
O1119       O  0.70485550  0.38005086  0.36045885    -0.79360
O1120       O  0.65342915  0.27740889  0.44162530    -0.79340
O1121       O  0.67526063  0.25964142  0.37306072    -0.79390
O1122       O  0.70275853  0.35835941  0.43554090    -0.79360
O1123       O  0.61593377  0.31592024  0.47791897    -0.79320
O1124       O  0.71836452  0.32742989  0.31740419    -0.79390
Co1125     Co  0.65863084  0.35874159  0.43003643     1.51530
Co1126     Co  0.65483391  0.28665795  0.32016752     1.51690
Co1127     Co  0.68220444  0.35132121  0.31380477     1.51570
Co1128     Co  0.62508221  0.30304046  0.40388204     1.51470
O1129       O  0.65940075  0.32617194  0.37001811    -1.41280
C1130       C  0.63821284  0.32262787  0.50722015     1.10270
C1131       C  0.71817275  0.30362274  0.29122434     1.10360
C1132       C  0.71722085  0.37304502  0.40356066     1.10300
C1133       C  0.67162491  0.25983342  0.42286718     1.10270
O1134       O  0.64552126  0.35068799  0.99633868    -0.79350
O1135       O  0.70948970  0.29596993  0.83323877    -0.79370
O1136       O  0.66568833  0.29565735  0.95841450    -0.79380
O1137       O  0.70181248  0.36485759  0.85668610    -0.79320
O1138       O  0.67766355  0.26215166  0.89979175    -0.79440
O1139       O  0.69638077  0.33996409  0.93053547    -0.79360
O1140       O  0.70261142  0.32729089  0.77115230    -0.79350
O1141       O  0.61280844  0.31307367  0.98846568    -0.79380
C1142       C  0.62562175  0.33408011  0.01672808     1.10340
C1143       C  0.71784084  0.30706159  0.79092131     1.10230
C1144       C  0.67717432  0.27129372  0.94762763     1.10360
C1145       C  0.71269016  0.35495470  0.90051129     1.10240
O1146       O  0.65641936  0.38587497  0.90433865    -0.79350
O1147       O  0.62875893  0.26110494  0.82428638    -0.79420
O1148       O  0.59085260  0.31496655  0.87915048    -0.79360
O1149       O  0.63993677  0.33203255  0.75315023    -0.79340
O1150       O  0.66118408  0.28847166  0.75228809    -0.79390
O1151       O  0.60849812  0.35419339  0.91397638    -0.79360
O1152       O  0.63716980  0.37265649  0.82810875    -0.79320
O1153       O  0.61683841  0.26537732  0.90845695    -0.79390
Co1154     Co  0.65229376  0.34283056  0.92142297     1.51530
Co1155     Co  0.66886760  0.27905004  0.82914004     1.51690
Co1156     Co  0.62944475  0.30754467  0.91686219     1.51570
Co1157     Co  0.66914019  0.34833904  0.80526212     1.51470
O1158       O  0.65323394  0.31767593  0.85331949    -1.41280
C1159       C  0.64252994  0.39266360  0.86167960     1.10270
C1160       C  0.61570509  0.25144225  0.86404730     1.10360
C1161       C  0.58595110  0.34007506  0.89589490     1.10300
C1162       C  0.64580686  0.30819855  0.72986799     1.10270
O1163       O  0.97032668  0.40721681  0.97247372    -0.79350
O1164       O  0.83582590  0.40399917  0.01842625    -0.79370
O1165       O  0.89817267  0.34536884  0.01355550    -0.79380
O1166       O  0.87864962  0.43824773  0.88309184    -0.79320
O1167       O  0.86749595  0.36242618  0.07432905    -0.79440
O1168       O  0.92138768  0.41565179  0.90480335    -0.79360
O1169       O  0.85604195  0.39359888  0.94207685    -0.79350
O1170       O  0.94718528  0.36608810  0.96412399    -0.79380
C1171       C  0.97022182  0.38108495  0.95663585     1.10340
C1172       C  0.83353842  0.39277195  0.97168859     1.10230
C1173       C  0.87726614  0.34116266  0.04509758     1.10360
C1174       C  0.90191519  0.42442411  0.86955186     1.10240
O1175       O  0.95755420  0.45791675  0.95165198    -0.79350
O1176       O  0.90146815  0.41163412  0.12703955    -0.79420
O1177       O  0.96533113  0.39785293  0.06832506    -0.79360
O1178       O  0.85507263  0.45393912  0.98459623    -0.79340
O1179       O  0.87045864  0.45159736  0.06865639    -0.79390
O1180       O  0.94838144  0.44249078  0.05352230    -0.79360
O1181       O  0.90998570  0.46713927  0.96054770    -0.79320
O1182       O  0.92056061  0.36844670  0.11394908    -0.79390
Co1183     Co  0.93351772  0.42976852  0.98230875     1.51530
Co1184     Co  0.87092199  0.40768544  0.06970956     1.51690
Co1185     Co  0.93101351  0.37148219  0.03715854     1.51570
Co1186     Co  0.88580642  0.42672652  0.95398989     1.51470
O1187       O  0.90385344  0.40565926  0.01698299    -1.41280
C1188       C  0.93692837  0.47601940  0.95216144     1.10270
C1189       C  0.91349664  0.38911833  0.14508958     1.10360
C1190       C  0.96596052  0.42560974  0.07814028     1.10300
C1191       C  0.85863705  0.46598637  0.03088764     1.10270
O1192       O  0.95263972  0.37125039  0.46959526    -0.79350
O1193       O  0.84628936  0.39096437  0.49717804    -0.79370
O1194       O  0.91209902  0.34897796  0.52218048    -0.79380
O1195       O  0.90598159  0.40012727  0.40077343    -0.79320
O1196       O  0.87568080  0.36126149  0.57342631    -0.79440
O1197       O  0.95420409  0.40999488  0.39113422    -0.79360
O1198       O  0.85303523  0.42593478  0.44025150    -0.79350
O1199       O  0.97153026  0.36096745  0.54921228    -0.79380
C1200       C  0.97499420  0.36292401  0.49894867     1.10340
C1201       C  0.83776656  0.40495162  0.45724628     1.10230
C1202       C  0.89051252  0.34148654  0.54980393     1.10360
C1203       C  0.92907102  0.40050610  0.37122230     1.10240
O1204       O  0.93540666  0.45720048  0.44791708    -0.79350
O1205       O  0.89233424  0.41616529  0.62489748    -0.79420
O1206       O  0.95939253  0.41733986  0.57624194    -0.79360
O1207       O  0.88828358  0.46708989  0.49957112    -0.79340
O1208       O  0.85701425  0.44727774  0.55485591    -0.79390
O1209       O  0.97580216  0.42973404  0.49948747    -0.79360
O1210       O  0.89672811  0.45916907  0.39284698    -0.79320
O1211       O  0.92541687  0.38042824  0.62306365    -0.79390
Co1212     Co  0.93893491  0.41336808  0.46116325     1.51530
Co1213     Co  0.86986926  0.40456812  0.55968837     1.51690
Co1214     Co  0.93611756  0.38424268  0.54622940     1.51570
Co1215     Co  0.89668505  0.43315135  0.45361941     1.51470
O1216       O  0.90741464  0.41153710  0.51989281    -1.41280
C1217       C  0.92267535  0.46849301  0.40695591     1.10270
C1218       C  0.91134587  0.40024171  0.64823097     1.10360
C1219       C  0.97660546  0.43254748  0.54982377     1.10300
C1220       C  0.86908320  0.46976108  0.53465569     1.10270
O1221       O  0.73663862  0.19622984  0.14708679    -0.79350
O1222       O  0.84295507  0.10918854  0.05655901    -0.79370
O1223       O  0.80363763  0.19956521  0.01397035    -0.79380
O1224       O  0.77397016  0.11754091  0.18549420    -0.79320
O1225       O  0.81338089  0.15309657  0.00073734    -0.79440
O1226       O  0.75435509  0.14061031  0.11910470    -0.79360
O1227       O  0.81749178  0.09282733  0.12441585    -0.79350
O1228       O  0.75701358  0.18927656  0.07023548    -0.79380
C1229       C  0.73481602  0.19809277  0.09667641     1.10340
C1230       C  0.83151799  0.08829813  0.08208641     1.10230
C1231       C  0.80393036  0.17690990  0.98233989     1.10360
C1232       C  0.75128901  0.12272937  0.15533129     1.10240
O1233       O  0.77380265  0.16848249  0.22342827    -0.79350
O1234       O  0.85613528  0.19674784  0.04587547    -0.79420
O1235       O  0.78709557  0.23962501  0.10239734    -0.79360
O1236       O  0.86269820  0.12880052  0.17788831    -0.79340
O1237       O  0.87937071  0.15356544  0.10999573    -0.79390
O1238       O  0.79337133  0.21469012  0.17454380    -0.79360
O1239       O  0.82089408  0.15799442  0.23182803    -0.79320
O1240       O  0.83997549  0.21143743  0.12026098    -0.79390
Co1241     Co  0.77515310  0.17670736  0.14376413     1.51530
Co1242     Co  0.84513975  0.15335847  0.05787748     1.51690
Co1243     Co  0.79950608  0.19862882  0.09670381     1.51570
Co1244     Co  0.81830122  0.12693942  0.17514223     1.51470
O1245       O  0.81295833  0.15786407  0.11609633    -1.41280
C1246       C  0.79758716  0.16725440  0.25258931     1.10270
C1247       C  0.85439845  0.21725402  0.08063452     1.10360
C1248       C  0.78799989  0.23924058  0.15327306     1.10300
C1249       C  0.88373604  0.14085772  0.15379017     1.10270
O1250       O  0.73793713  0.18751062  0.62341723    -0.79350
O1251       O  0.84205890  0.11015127  0.55224036    -0.79370
O1252       O  0.81516940  0.20392035  0.51370952    -0.79380
O1253       O  0.78404978  0.11549760  0.68009759    -0.79320
O1254       O  0.81928683  0.15704823  0.50162578    -0.79440
O1255       O  0.76488105  0.13389509  0.60760329    -0.79360
O1256       O  0.83594518  0.09659288  0.63589197    -0.79350
O1257       O  0.76578522  0.18538969  0.55450329    -0.79380
C1258       C  0.74035671  0.19076421  0.57347760     1.10340
C1259       C  0.84015588  0.09062504  0.58719866     1.10230
C1260       C  0.81384946  0.18153575  0.48236737     1.10360
C1261       C  0.76246547  0.11680035  0.64545323     1.10240
O1262       O  0.77249743  0.16491846  0.71371357    -0.79350
O1263       O  0.86597429  0.19656107  0.55505447    -0.79420
O1264       O  0.78769928  0.23856989  0.59671032    -0.79360
O1265       O  0.87015174  0.14185998  0.68850139    -0.79340
O1266       O  0.88593610  0.14558944  0.60577728    -0.79390
O1267       O  0.79107676  0.21148483  0.66661094    -0.79360
O1268       O  0.82007623  0.16390979  0.73305906    -0.79320
O1269       O  0.84278480  0.21470669  0.62238202    -0.79390
Co1270     Co  0.77866760  0.17234090  0.63343112     1.51530
Co1271     Co  0.85089950  0.15302054  0.55769020     1.51690
Co1272     Co  0.80503061  0.19913027  0.59222099     1.51570
Co1273     Co  0.82705830  0.13190461  0.67979259     1.51470
O1274       O  0.82031423  0.15944101  0.61632043    -1.41280
C1275       C  0.79396914  0.16771199  0.74863621     1.10270
C1276       C  0.86168469  0.21814382  0.58761887     1.10360
C1277       C  0.78353097  0.23557130  0.64626471     1.10300
C1278       C  0.89070228  0.14153168  0.65508003     1.10270
O1279       O  0.60066913  0.52418547  0.28765990    -0.79350
O1280       O  0.56472108  0.14224333  0.23503806    -0.79370
O1281       O  0.62444425  0.07507415  0.24116334    -0.79380
O1282       O  0.57707803  0.07679792  0.36384036    -0.79320
O1283       O  0.60676051  0.10780591  0.18487922    -0.79440
O1284       O  0.55627736  0.03410465  0.35030035    -0.79360
O1285       O  0.57819797  0.12604368  0.31341035    -0.79350
O1286       O  0.62000545  0.01695738  0.20950411    -0.79380
C1287       C  0.61773706  0.50953816  0.25731753     1.10340
C1288       C  0.57488482  0.14664808  0.28229119     1.10230
C1289       C  0.62881279  0.09621158  0.21055529     1.10360
C1290       C  0.57005460  0.05237810  0.38138760     1.10240
O1291       O  0.51344097  0.04064283  0.25984284    -0.79350
O1292       O  0.55508571  0.07366659  0.13654141    -0.79420
O1293       O  0.55964635  0.51717784  0.19030358    -0.79360
O1294       O  0.51498497  0.11958211  0.27849418    -0.79340
O1295       O  0.51804066  0.10460538  0.19424665    -0.79390
O1296       O  0.54949274  0.49334530  0.26322308    -0.79360
O1297       O  0.51347190  0.06802900  0.33239957    -0.79320
O1298       O  0.59900429  0.05636842  0.14295593    -0.79390
Co1299     Co  0.55692506  0.03447107  0.26924493     1.51530
Co1300     Co  0.56124930  0.10509604  0.19090064     1.51690
Co1301     Co  0.59209271  0.04746307  0.21968523     1.51570
Co1302     Co  0.54726909  0.09649927  0.31801641     1.51470
O1303       O  0.56350830  0.07647099  0.25137595    -1.41280
C1304       C  0.50107769  0.04828598  0.30225816     1.10270
C1305       C  0.57788745  0.06524865  0.11369891     1.10360
C1306       C  0.54786781  0.49477514  0.21270056     1.10300
C1307       C  0.50374581  0.11659930  0.23099714     1.10270
O1308       O  0.56529839  0.50552360  0.79531861    -0.79350
O1309       O  0.58696616  0.13178078  0.75087888    -0.79370
O1310       O  0.63740436  0.06465299  0.73244110    -0.79380
O1311       O  0.57663038  0.09350233  0.85694299    -0.79320
O1312       O  0.61983423  0.09942628  0.68069388    -0.79440
O1313       O  0.56709315  0.04879681  0.86242068    -0.79360
O1314       O  0.54640870  0.12823345  0.79770223    -0.79350
O1315       O  0.60981230  0.52426549  0.79099649    -0.79380
C1316       C  0.59329868  0.50349915  0.80391872     1.10340
C1317       C  0.57030024  0.14166193  0.78670105     1.10230
C1318       C  0.64178771  0.08585689  0.70228781     1.10360
C1319       C  0.57760665  0.07167515  0.88471781     1.10240
O1320       O  0.51168492  0.03504316  0.82758616    -0.79350
O1321       O  0.56323073  0.07679067  0.63323408    -0.79420
O1322       O  0.56924529  0.51000546  0.69666578    -0.79360
O1323       O  0.51265331  0.08167037  0.74658575    -0.79340
O1324       O  0.53233143  0.11434859  0.69609013    -0.79390
O1325       O  0.52778807  0.53268361  0.71813331    -0.79360
O1326       O  0.51365785  0.08222234  0.85373066    -0.79320
O1327       O  0.60196348  0.04836492  0.63948892    -0.79390
Co1328     Co  0.54694506  0.04524946  0.78766021     1.51530
Co1329     Co  0.57548074  0.10330608  0.69368794     1.51690
Co1330     Co  0.60296245  0.03864012  0.71799543     1.51570
Co1331     Co  0.54588039  0.08458210  0.80049086     1.51470
O1332       O  0.57647765  0.07077894  0.74761024    -1.41280
C1333       C  0.00177882  0.05636627  0.85616312     1.10270
C1334       C  0.58121794  0.05969927  0.61149731     1.10360
C1335       C  0.54104549  0.51353533  0.69080138     1.10300
C1336       C  0.50949211  0.10147928  0.71294370     1.10270
C1337       C  0.60406495  0.04975378  0.52208851     0.24390
C1338       C  0.57856207  0.05413237  0.55255834    -0.23720
C1339       C  0.55054102  0.05557296  0.52539327     0.19290
C1340       C  0.54778914  0.05132016  0.47002293     0.24330
C1341       C  0.57321307  0.04816750  0.43956521    -0.23670
C1342       C  0.60146859  0.04781695  0.46597060     0.19230
F1343       F  0.62660270  0.04701895  0.43738945    -0.13620
F1344       F  0.63170812  0.04993157  0.54618800    -0.15990
F1345       F  0.52034099  0.05306882  0.44559783    -0.15990
F1346       F  0.52587213  0.06312194  0.55173819    -0.13620
C1347       C  0.60145931  0.05418766  0.97051396     0.24390
C1348       C  0.58308550  0.07384985  0.94331626    -0.23720
C1349       C  0.56492431  0.09241990  0.97318719     0.19290
C1350       C  0.56340380  0.08964239  0.02844274     0.24330
C1351       C  0.58045312  0.06850518  0.05532709    -0.23670
C1352       C  0.60035148  0.05151912  0.02600236     0.19230
F1353       F  0.61796849  0.03163722  0.05061586    -0.13620
F1354       F  0.62084751  0.03790512  0.94342334    -0.15990
F1355       F  0.54491345  0.10752418  0.05546943    -0.15990
F1356       F  0.54692025  0.11191259  0.94836511    -0.13620
C1357       C  0.92484816  0.10681926  0.70024156     0.24390
C1358       C  0.92107785  0.13311566  0.67313227    -0.23720
C1359       C  0.94643742  0.14844035  0.65718828     0.19290
C1360       C  0.97514825  0.13810646  0.66951869     0.24330
C1361       C  0.97905564  0.11165384  0.69677135    -0.23670
C1362       C  0.95343129  0.09596867  0.71108258     0.19230
F1363       F  0.95593154  0.06958059  0.73408578    -0.13620
F1364       F  0.90068577  0.09070728  0.71364351    -0.15990
F1365       F  0.99904046  0.15419180  0.65488243    -0.15990
F1366       F  0.94339202  0.17356793  0.62997680    -0.13620
C1367       C  0.72709859  0.08747255  0.70023542     0.24390
C1368       C  0.73214255  0.10481883  0.65582334    -0.23720
C1369       C  0.70704565  0.11487412  0.62608612     0.19290
C1370       C  0.67806775  0.10948304  0.64226355     0.24330
C1371       C  0.67295708  0.09296510  0.68762868    -0.23670
C1372       C  0.69788210  0.08141803  0.71573310     0.19230
F1373       F  0.69415613  0.06462787  0.75892441    -0.13620
F1374       F  0.75041699  0.07671166  0.72932873    -0.15990
F1375       F  0.65498051  0.12042807  0.61276064    -0.15990
F1376       F  0.71023336  0.13090991  0.58179430    -0.13620
C1377       C  0.78135681  0.14957745  0.83970459     0.24390
C1378       C  0.78968456  0.17294545  0.80773585    -0.23720
C1379       C  0.79963590  0.19915738  0.83429489     0.19290
C1380       C  0.80202113  0.20154787  0.89097492     0.24330
C1381       C  0.79546930  0.17743463  0.92292906    -0.23670
C1382       C  0.78432325  0.15168298  0.89603513     0.19230
F1383       F  0.77724260  0.12783028  0.92437564    -0.13620
F1384       F  0.77232379  0.12373768  0.81619267    -0.15990
F1385       F  0.81281588  0.22681301  0.91427704    -0.15990
F1386       F  0.80833970  0.22217058  0.80519379    -0.13620
C1387       C  0.77957594  0.16051658  0.34529961     0.24390
C1388       C  0.79860458  0.17491320  0.31094014    -0.23720
C1389       C  0.82172634  0.19301295  0.33388383     0.19290
C1390       C  0.82465367  0.19781746  0.38961051     0.24330
C1391       C  0.80625479  0.18258190  0.42396451    -0.23670
C1392       C  0.78435291  0.16317348  0.40095448     0.19230
F1393       F  0.76918793  0.14488791  0.43231306    -0.13620
F1394       F  0.75834484  0.14145794  0.32503061    -0.15990
F1395       F  0.84740631  0.21501868  0.41013813    -0.15990
F1396       F  0.84237073  0.20507895  0.30243389    -0.13620
C1397       C  0.93933525  0.14247874  0.14394027     0.24390
C1398       C  0.91481377  0.13888425  0.17680844    -0.23720
C1399       C  0.92045380  0.13158009  0.23072894     0.19290
C1400       C  0.94968930  0.12622494  0.25004651     0.24330
C1401       C  0.97371408  0.12767620  0.21572550    -0.23670
C1402       C  0.96827731  0.13694314  0.16310188     0.19230
F1403       F  0.99108170  0.13991130  0.12926567    -0.13620
F1404       F  0.93536548  0.14983945  0.09206845    -0.15990
F1405       F  0.95423565  0.11811283  0.30135350    -0.15990
F1406       F  0.89765379  0.12899383  0.26460340    -0.13620
C1407       C  0.66645769  0.11682730  0.14930725     0.24390
C1408       C  0.66023287  0.10411399  0.19826275    -0.23720
C1409       C  0.68454503  0.09547664  0.23146612     0.19290
C1410       C  0.71417357  0.10002785  0.21655662     0.24330
C1411       C  0.72033066  0.11316742  0.16788965    -0.23670
C1412       C  0.69591838  0.12104137  0.13417704     0.19230
F1413       F  0.70035589  0.13309917  0.08613169    -0.13620
F1414       F  0.64400534  0.12444055  0.11477499    -0.15990
F1415       F  0.73676851  0.09202533  0.25040338    -0.15990
F1416       F  0.67974294  0.08272287  0.27875558    -0.13620
C1417       C  0.51243338  0.44341215  0.62449515     0.24390
C1418       C  0.99628254  0.45345985  0.57978249    -0.23720
C1419       C  0.99232892  0.48371366  0.57451178     0.19290
C1420       C  0.50526537  0.50344511  0.61279782     0.24330
C1421       C  0.52371409  0.49327346  0.65453352    -0.23670
C1422       C  0.52573152  0.46310067  0.66152824     0.19230
F1423       F  0.53723480  0.45265318  0.70761026    -0.13620
F1424       F  0.51345027  0.41441660  0.63457121    -0.15990
F1425       F  0.49796716  0.03203895  0.61172338    -0.15990
F1426       F  0.97388297  0.49388590  0.53525949    -0.13620
C1427       C  0.97101634  0.48443259  0.37490257     0.24390
C1428       C  0.94029867  0.98961092  0.37686856    -0.23720
C1429       C  0.92859956  0.01435011  0.35147919     0.19290
C1430       C  0.94798120  0.03395032  0.32616169     0.24330
C1431       C  0.97883273  0.02829714  0.32488791    -0.23670
C1432       C  0.98964124  0.50303678  0.34900478     0.19230
F1433       F  0.51860097  0.49554197  0.34792905    -0.13620
F1434       F  0.98362727  0.46084705  0.39799532    -0.15990
F1435       F  0.93674724  0.05816495  0.30320176    -0.15990
F1436       F  0.89899588  0.02006785  0.35290948    -0.13620
C1437       C  0.86205368  0.27198712  0.61316453     0.24390
C1438       C  0.87280367  0.24907268  0.58005973    -0.23720
C1439       C  0.89034246  0.25710467  0.53704630     0.19290
C1440       C  0.89630143  0.28692419  0.52700737     0.24330
C1441       C  0.88420998  0.30959096  0.55887420    -0.23590
C1442       C  0.86716836  0.30142894  0.60219581     0.19230
F1443       F  0.85547011  0.32202084  0.63505290    -0.13620
F1444       F  0.84574347  0.26623573  0.65637433    -0.15990
F1445       F  0.91347213  0.29353225  0.48534818    -0.15990
F1446       F  0.90140153  0.23621110  0.50414680    -0.13620
C1447       C  0.83432316  0.00724873  0.57582941     0.24390
C1448       C  0.86094280  0.00045723  0.55008649    -0.23720
C1449       C  0.87987279  0.02392844  0.53614940     0.19290
C1450       C  0.87214398  0.05295593  0.54630294     0.24330
C1451       C  0.84569550  0.05969501  0.57176431    -0.23670
C1452       C  0.82696453  0.03661285  0.58710956     0.19230
F1453       F  0.80131954  0.04254726  0.61225952    -0.13620
F1454       F  0.81521443  0.48562908  0.58932429    -0.15990
F1455       F  0.89144132  0.07461693  0.53347237    -0.15990
F1456       F  0.90649642  0.01899583  0.51346580    -0.13620
C1457       C  0.91171206  0.44056864  0.77887420     0.24390
C1458       C  0.90699578  0.41770646  0.81361544    -0.23720
C1459       C  0.90877261  0.38852659  0.79519060     0.19290
C1460       C  0.91286252  0.38232357  0.74107177     0.24330
C1461       C  0.91567395  0.40535347  0.70567533    -0.23670
C1462       C  0.91630057  0.43444595  0.72527296     0.19230
F1463       F  0.92005144  0.45699280  0.69179979    -0.13620
F1464       F  0.91173209  0.46880028  0.79684850    -0.15990
F1465       F  0.91169782  0.35413965  0.72267702    -0.15990
F1466       F  0.90490179  0.36619789  0.82902946    -0.13620
C1467       C  0.89298516  0.39445230  0.23418988     0.24390
C1468       C  0.91701046  0.38659962  0.20297045    -0.23720
C1469       C  0.94460057  0.37974139  0.22765107     0.19290
C1470       C  0.94873772  0.38327984  0.28313757     0.24330
C1471       C  0.92488374  0.39245222  0.31423664    -0.23670
C1472       C  0.89671737  0.39707879  0.28921710     0.19230
F1473       F  0.87314195  0.40642040  0.31736510    -0.13620
F1474       F  0.86599418  0.40069302  0.21103632    -0.15990
F1475       F  0.97613910  0.37874624  0.30604584    -0.15990
F1476       F  0.96808854  0.37213287  0.19775800    -0.13620
C1477       C  0.98284257  0.44531651  0.16799718     0.24390
C1478       C  0.98905165  0.43916887  0.11456435    -0.23720
C1479       C  0.51558161  0.45033205  0.09405725     0.19290
C1480       C  0.53564923  0.46714447  0.12669593     0.24330
C1481       C  0.52943676  0.47323379  0.18039506    -0.23670
C1482       C  0.50312167  0.46150570  0.20096287     0.19230
F1483       F  0.49567337  0.46765784  0.25186193    -0.13620
F1484       F  0.95601722  0.43786299  0.18721284    -0.15990
F1485       F  0.56070918  0.47819757  0.10536348    -0.15990
F1486       F  0.52107683  0.44674171  0.04146840    -0.13620
C1487       C  0.97173132  0.01766284  0.96841642     0.24390
C1488       C  0.94506403  0.00670207  0.94368452    -0.23720
C1489       C  0.93264665  0.52105041  0.89966398     0.19290
C1490       C  0.94964819  0.04219556  0.87446677     0.24330
C1491       C  0.97871513  0.04938821  0.89402560    -0.23670
C1492       C  0.98850526  0.03893291  0.94361526     0.19230
F1493       F  0.51650761  0.04538801  0.96324155    -0.13620
F1494       F  0.98366715  0.00465385  0.01222427    -0.15990
F1495       F  0.93937372  0.55264131  0.82731484    -0.15990
F1496       F  0.90632321  0.51155249  0.87646887    -0.13620
C1497       C  0.86821118  0.25872234  0.02024583     0.24390
C1498       C  0.86198501  0.24877516  0.07134659    -0.23720
C1499       C  0.85883869  0.27005018  0.11286901     0.19290
C1500       C  0.86150339  0.30009329  0.10345105     0.24330
C1501       C  0.86811615  0.30998093  0.05259933    -0.23670
C1502       C  0.87136391  0.28882662  0.01107253     0.19230
F1503       F  0.87775753  0.29730762  0.96120666    -0.13620
F1504       F  0.87090654  0.23939784  0.97877693    -0.15990
F1505       F  0.85908328  0.31943069  0.14501956    -0.15990
F1506       F  0.85340952  0.26187040  0.16331959    -0.13620
C1507       C  0.87115185  0.02000188  0.03291669     0.24390
C1508       C  0.85030007  0.99733145  0.04052774    -0.23720
C1509       C  0.82236115  0.00497753  0.06036589     0.19290
C1510       C  0.81568893  0.03450032  0.07257221     0.24330
C1511       C  0.83656662  0.05721191  0.06391546    -0.23670
C1512       C  0.86420721  0.04942169  0.04306125     0.19230
F1513       F  0.88553874  0.07017677  0.03581362    -0.13620
F1514       F  0.89914886  0.01374318  0.01863318    -0.15990
F1515       F  0.78884797  0.04083514  0.09315594    -0.15990
F1516       F  0.80182607  0.48376723  0.06938123    -0.13620
C1517       C  0.69339148  0.22184000  0.97659612     0.24390
C1518       C  0.68770914  0.25137914  0.99017712    -0.23720
C1519       C  0.69092809  0.26047406  0.04429567     0.19290
C1520       C  0.70231862  0.24118699  0.08255762     0.24330
C1521       C  0.71065477  0.21274616  0.06711438    -0.23670
C1522       C  0.70427383  0.20282158  0.01466136     0.19230
F1523       F  0.71145280  0.17522814  0.99888812    -0.13620
F1524       F  0.68978251  0.21124251  0.92576688    -0.15990
F1525       F  0.70774491  0.25111592  0.13346013    -0.15990
F1526       F  0.68470633  0.28832649  0.05973971    -0.13620
C1527       C  0.75468192  0.30423255  0.71650899     0.24390
C1528       C  0.73891549  0.29104434  0.75770058    -0.23720
C1529       C  0.73833088  0.26057660  0.76060114     0.19290
C1530       C  0.75164785  0.24364455  0.72249004     0.24330
C1531       C  0.76808916  0.25619253  0.68177862    -0.23670
C1532       C  0.76949669  0.28678642  0.67876821     0.19230
F1533       F  0.78476837  0.29960922  0.63966847    -0.13620
F1534       F  0.75503872  0.33373908  0.71209398    -0.15990
F1535       F  0.74658596  0.21446717  0.72418601    -0.15990
F1536       F  0.72236960  0.24656040  0.79761182    -0.13620
C1537       C  0.76735738  0.36432747  0.88161308     0.24390
C1538       C  0.74413915  0.36278843  0.91815305    -0.23720
C1539       C  0.75101464  0.36973725  0.97206227     0.19290
C1540       C  0.77995235  0.37866451  0.98903543     0.24330
C1541       C  0.80337152  0.38073970  0.95264329    -0.23670
C1542       C  0.79665996  0.37290760  0.89868152     0.19230
F1543       F  0.81820885  0.37410225  0.86207774    -0.13620
F1544       F  0.76177020  0.35732467  0.82926541    -0.15990
F1545       F  0.78465964  0.38582242  0.04158138    -0.15990
F1546       F  0.72925694  0.36924777  0.00839796    -0.13620
C1547       C  0.55242661  0.36829048  0.95307851     0.24390
C1548       C  0.55561028  0.35091902  0.90651565    -0.23720
C1549       C  0.52962324  0.34171443  0.87686164     0.19290
C1550       C  0.00116153  0.35081543  0.89280794     0.24330
C1551       C  0.49858132  0.36844333  0.93924924    -0.23670
C1552       C  0.52445388  0.37622971  0.96961133     0.19230
F1553       F  0.52263085  0.39085678  0.01708051    -0.13620
F1554       F  0.57639862  0.37652271  0.98494191    -0.15990
F1555       F  0.97643756  0.34296021  0.86267444    -0.15990
F1556       F  0.53180856  0.32439206  0.83246790    -0.13620
C1557       C  0.57199824  0.21643722  0.85612187     0.24390
C1558       C  0.60295590  0.22192555  0.85812631    -0.23720
C1559       C  0.62248287  0.19974884  0.84336156     0.19290
C1560       C  0.61149664  0.17299241  0.82397757     0.24330
C1561       C  0.58055673  0.16808851  0.81705870    -0.23670
C1562       C  0.56074217  0.18941517  0.83561210     0.19230
F1563       F  0.53074955  0.18499043  0.83019778    -0.13620
F1564       F  0.55281385  0.23789063  0.86960068    -0.15990
F1565       F  0.63134282  0.15229050  0.80946421    -0.15990
F1566       F  0.65239186  0.20487360  0.84347770    -0.13620
C1567       C  0.61214917  0.42441890  0.80282370     0.24390
C1568       C  0.63057012  0.42170861  0.84949485    -0.23720
C1569       C  0.63855636  0.44700456  0.87968927     0.19290
C1570       C  0.62738295  0.47415247  0.86428347     0.24330
C1571       C  0.60679406  0.47597461  0.82076516    -0.23670
C1572       C  0.60127271  0.45128434  0.78840265     0.19230
F1573       F  0.58835723  0.45379624  0.73931680    -0.13620
F1574       F  0.60519717  0.40131170  0.76929531    -0.15990
F1575       F  0.63840897  0.49856229  0.88929326    -0.15990
F1576       F  0.65800914  0.44570313  0.92231040    -0.13620
C1577       C  0.61244384  0.31194867  0.59161265     0.24390
C1578       C  0.63847087  0.31938130  0.56474076    -0.23720
C1579       C  0.66601490  0.32196979  0.59308166     0.19290
C1580       C  0.66811255  0.31446031  0.64553982     0.24330
C1581       C  0.64247779  0.30757930  0.67273308    -0.23670
C1582       C  0.61440730  0.30689213  0.64629127     0.19230
F1583       F  0.58926313  0.30156066  0.67330430    -0.13620
F1584       F  0.58534226  0.31028367  0.56555149    -0.15990
F1585       F  0.69538003  0.31544896  0.67043312    -0.15990
F1586       F  0.69155162  0.33039345  0.56969926    -0.13620
C1587       C  0.64260706  0.35607194  0.15648585     0.24390
C1588       C  0.63100612  0.33175942  0.18231057    -0.23720
C1589       C  0.60989389  0.31324768  0.15539440     0.19290
C1590       C  0.60455093  0.31613911  0.10068048     0.24330
C1591       C  0.61998711  0.33786642  0.07352347    -0.23670
C1592       C  0.63620725  0.35971069  0.10288950     0.19230
F1593       F  0.64918284  0.38268486  0.07884610    -0.13620
F1594       F  0.66274782  0.37472636  0.18150108    -0.15990
F1595       F  0.58687642  0.29595730  0.07381516    -0.15990
F1596       F  0.59724367  0.29042661  0.18026748    -0.13620
C1597       C  0.70436668  0.23035213  0.55361640     0.24390
C1598       C  0.71711498  0.20395172  0.53778553    -0.23720
C1599       C  0.71343529  0.19488128  0.48360903     0.19290
C1600       C  0.69916907  0.21277016  0.44555926     0.24330
C1601       C  0.68776158  0.24006415  0.46112723    -0.23670
C1602       C  0.69001424  0.24795960  0.51603647     0.19230
F1603       F  0.67944468  0.27368221  0.53356658    -0.13620
F1604       F  0.70778074  0.24037329  0.60496293    -0.15990
F1605       F  0.69628872  0.20322820  0.39391010    -0.15990
F1606       F  0.72347241  0.16845581  0.46767108    -0.13620
C1607       C  0.78296288  0.26065805  0.24490211     0.24390
C1608       C  0.77988214  0.26409694  0.18905222    -0.23720
C1609       C  0.76204919  0.28688639  0.17005686     0.19290
C1610       C  0.74403458  0.30240660  0.20530639     0.24330
C1611       C  0.74386063  0.29538093  0.25967866    -0.23670
C1612       C  0.76454240  0.27560505  0.27972529     0.19230
F1613       F  0.76489202  0.26867611  0.33209707    -0.13620
F1614       F  0.80156982  0.24048906  0.26551544    -0.15990
F1615       F  0.72456329  0.32221372  0.18544819    -0.15990
F1616       F  0.75933281  0.29184600  0.11698262    -0.13620
C1617       C  0.78790881  0.41818380  0.41878247     0.24390
C1618       C  0.80849246  0.39668059  0.43338307    -0.23720
C1619       C  0.79902792  0.36725144  0.43529973     0.19290
C1620       C  0.76907134  0.35972818  0.42657248     0.24330
C1621       C  0.74833361  0.38136807  0.41455433    -0.23670
C1622       C  0.75790605  0.41046456  0.40894956     0.19230
F1623       F  0.73792941  0.43154021  0.39658661    -0.13620
F1624       F  0.79634897  0.44678084  0.41785945    -0.15990
F1625       F  0.76032275  0.33127635  0.42931620    -0.15990
F1626       F  0.81873989  0.34588622  0.44744720    -0.13620
C1627       C  0.53455775  0.34760185  0.39769291     0.24390
C1628       C  0.56065447  0.35755119  0.42602333    -0.23720
C1629       C  0.55793094  0.36874672  0.47868913     0.19290
C1630       C  0.53036104  0.36886295  0.50284129     0.24330
C1631       C  0.50442559  0.35882734  0.47485406    -0.23670
C1632       C  0.50666055  0.34866428  0.42162845     0.19230
F1633       F  0.98192284  0.33900520  0.39325941    -0.13620
F1634       F  0.53605909  0.33645972  0.34717204    -0.15990
F1635       F  0.52904863  0.37949409  0.55364275    -0.15990
F1636       F  0.58219352  0.37844510  0.50840020    -0.13620
C1637       C  0.57030661  0.18454696  0.35364851     0.24390
C1638       C  0.58091864  0.17612299  0.30342355    -0.23720
C1639       C  0.59792244  0.19558487  0.27490552     0.19290
C1640       C  0.60469280  0.22322424  0.29649395     0.24330
C1641       C  0.59394579  0.23203297  0.34681737    -0.23670
C1642       C  0.57666598  0.21244061  0.37516114     0.19230
F1643       F  0.56575864  0.22026679  0.42320081    -0.13620
F1644       F  0.55327531  0.16588457  0.38135777    -0.15990
F1645       F  0.62225361  0.24107917  0.26812783    -0.15990
F1646       F  0.60892520  0.18743209  0.22706190    -0.13620
C1647       C  0.64293850  0.45194496  0.35136745     0.24390
C1648       C  0.63912068  0.42670469  0.31825395    -0.23720
C1649       C  0.63071926  0.42981553  0.26408157     0.19290
C1650       C  0.62721680  0.45736952  0.24304927     0.24330
C1651       C  0.63029342  0.48236039  0.27634663    -0.23670
C1652       C  0.63817946  0.47952803  0.33057844     0.19230
F1653       F  0.64042761  0.00342949  0.36376374    -0.13620
F1654       F  0.65074481  0.45007324  0.40399122    -0.15990
F1655       F  0.61822436  0.45940879  0.19095912    -0.15990
F1656       F  0.62456534  0.40622681  0.23160214    -0.13620
O1657       O  0.65555623  0.89477094  0.38631191    -0.79350
O1658       O  0.61272203  0.77970606  0.33784764    -0.79370
O1659       O  0.67032998  0.83269785  0.24544525    -0.79380
O1660       O  0.59467607  0.82974058  0.37489082    -0.79320
O1661       O  0.63203601  0.80746815  0.26455470    -0.79440
O1662       O  0.61361552  0.86285640  0.43167212    -0.79360
O1663       O  0.59512685  0.77157031  0.41380057    -0.79350
O1664       O  0.64741036  0.87622340  0.30637721    -0.79380
C1665       C  0.64646111  0.89761602  0.33843635     1.10340
C1666       C  0.60110718  0.76162665  0.36792677     1.10230
C1667       C  0.64455348  0.82399415  0.23360502     1.10360
C1668       C  0.59099798  0.85125649  0.40646702     1.10240
O1669       O  0.66161749  0.82979643  0.48489909    -0.79350
O1670       O  0.69462919  0.78799972  0.28572547    -0.79420
O1671       O  0.70485339  0.88004617  0.36046017    -0.79360
O1672       O  0.65342583  0.77740402  0.44162597    -0.79340
O1673       O  0.67525835  0.75963563  0.37306349    -0.79390
O1674       O  0.70275515  0.85835411  0.43554057    -0.79360
O1675       O  0.61592961  0.81591551  0.47791580    -0.79320
O1676       O  0.71836565  0.82742159  0.31741766    -0.79390
Co1677     Co  0.65862745  0.85873613  0.43003247     1.51530
Co1678     Co  0.65483383  0.78665114  0.32016662     1.51690
Co1679     Co  0.68220624  0.85131427  0.31380624     1.51570
Co1680     Co  0.62507905  0.80303516  0.40387981     1.51470
O1681       O  0.65939819  0.82616623  0.37001579    -1.41280
C1682       C  0.63820869  0.82262361  0.50721658     1.10270
C1683       C  0.71817528  0.80361499  0.29123546     1.10360
C1684       C  0.71721790  0.87304058  0.40356243     1.10300
C1685       C  0.67162224  0.75982863  0.42286961     1.10270
O1686       O  0.64552001  0.85068623  0.99632459    -0.79350
O1687       O  0.70948830  0.79596912  0.83323481    -0.79370
O1688       O  0.66568713  0.79565513  0.95840838    -0.79380
O1689       O  0.70181151  0.86485608  0.85667883    -0.79320
O1690       O  0.67766287  0.76214964  0.89978605    -0.79440
O1691       O  0.69637911  0.83996172  0.93052643    -0.79360
O1692       O  0.70261006  0.82728882  0.77114656    -0.79350
O1693       O  0.61280733  0.81307169  0.98846008    -0.79380
C1694       C  0.62562204  0.83407884  0.01671860     1.10340
C1695       C  0.71783983  0.80706043  0.79091741     1.10230
C1696       C  0.67717401  0.77129185  0.94762176     1.10360
C1697       C  0.71268892  0.85495297  0.90050403     1.10240
O1698       O  0.65641852  0.88587319  0.90433019    -0.79350
O1699       O  0.62875879  0.76110151  0.82428024    -0.79420
O1700       O  0.59085033  0.81496372  0.87914529    -0.79360
O1701       O  0.63993569  0.83203016  0.75314410    -0.79340
O1702       O  0.66118337  0.78846927  0.75228282    -0.79390
O1703       O  0.60849617  0.85419185  0.91396561    -0.79360
O1704       O  0.63716897  0.87265615  0.82809960    -0.79320
O1705       O  0.61683720  0.76537471  0.90845046    -0.79390
Co1706     Co  0.65229196  0.84282872  0.92141211     1.51530
Co1707     Co  0.66886681  0.77904793  0.82913449     1.51690
Co1708     Co  0.62944307  0.80754220  0.91685582     1.51570
Co1709     Co  0.66913898  0.84833719  0.80525514     1.51470
O1710       O  0.65323168  0.81767357  0.85331149    -1.41280
C1711       C  0.64252903  0.89266265  0.86167193     1.10270
C1712       C  0.61570434  0.75143935  0.86404101     1.10360
C1713       C  0.58594891  0.84007275  0.89588718     1.10300
C1714       C  0.64580565  0.80819582  0.72986285     1.10270
O1715       O  0.97032690  0.90721622  0.97247242    -0.79350
O1716       O  0.83582455  0.90399760  0.01842470    -0.79370
O1717       O  0.89817283  0.84536995  0.01355683    -0.79380
O1718       O  0.87864934  0.93824709  0.88309038    -0.79320
O1719       O  0.86749633  0.86242690  0.07433080    -0.79440
O1720       O  0.92138732  0.91565115  0.90480249    -0.79360
O1721       O  0.85604098  0.89359839  0.94207505    -0.79350
O1722       O  0.94718418  0.86608830  0.96412329    -0.79380
C1723       C  0.97022096  0.88108439  0.95663367     1.10340
C1724       C  0.83353725  0.89277094  0.97168646     1.10230
C1725       C  0.87726686  0.84116347  0.04509970     1.10360
C1726       C  0.90191496  0.92442347  0.86955081     1.10240
O1727       O  0.95755363  0.95791643  0.95164988    -0.79350
O1728       O  0.90146697  0.91163674  0.12703747    -0.79420
O1729       O  0.96533163  0.89785449  0.06832395    -0.79360
O1730       O  0.85507089  0.95393862  0.98459250    -0.79340
O1731       O  0.87045573  0.95159782  0.06865323    -0.79390
O1732       O  0.94838091  0.94249169  0.05352098    -0.79360
O1733       O  0.90998498  0.96713860  0.96054763    -0.79320
O1734       O  0.92056124  0.86844974  0.11394953    -0.79390
Co1735     Co  0.93351753  0.92976834  0.98230740     1.51530
Co1736     Co  0.87092080  0.90768595  0.06970816     1.51690
Co1737     Co  0.93101358  0.87148348  0.03715853     1.51570
Co1738     Co  0.88580556  0.92672615  0.95398861     1.51470
O1739       O  0.90385274  0.90565969  0.01698213    -1.41280
C1740       C  0.93692759  0.97601891  0.95216134     1.10270
C1741       C  0.91349726  0.88912212  0.14508848     1.10360
C1742       C  0.96595980  0.92561117  0.07814054     1.10300
C1743       C  0.85863405  0.96598620  0.03088380     1.10270
O1744       O  0.95263745  0.87125530  0.46959146    -0.79350
O1745       O  0.84628373  0.89096574  0.49718423    -0.79370
O1746       O  0.91209702  0.84897987  0.52217780    -0.79380
O1747       O  0.90597965  0.90012955  0.40077191    -0.79320
O1748       O  0.87567921  0.86126214  0.57342608    -0.79440
O1749       O  0.95420119  0.91000250  0.39113521    -0.79360
O1750       O  0.85303080  0.92593197  0.44024882    -0.79350
O1751       O  0.97152814  0.86097142  0.54920806    -0.79380
C1752       C  0.97499180  0.86292821  0.49894446     1.10340
C1753       C  0.83776210  0.90495009  0.45724813     1.10230
C1754       C  0.89051100  0.84148774  0.54980212     1.10360
C1755       C  0.92906942  0.90051137  0.37122171     1.10240
O1756       O  0.93539869  0.95720526  0.44792012    -0.79350
O1757       O  0.89233305  0.91616594  0.62489853    -0.79420
O1758       O  0.95938840  0.91734287  0.57624169    -0.79360
O1759       O  0.88827461  0.96709018  0.49956906    -0.79340
O1760       O  0.85701016  0.94727806  0.55486237    -0.79390
O1761       O  0.97579699  0.92973998  0.49948840    -0.79360
O1762       O  0.89672120  0.95917059  0.39284657    -0.79320
O1763       O  0.92541519  0.88042875  0.62306159    -0.79390
Co1764     Co  0.93893056  0.91337288  0.46116338     1.51530
Co1765     Co  0.86986617  0.90456894  0.55969152     1.51690
Co1766     Co  0.93611456  0.88424515  0.54622723     1.51570
Co1767     Co  0.89667950  0.93315229  0.45361829     1.51470
O1768       O  0.90741019  0.91153859  0.51989212    -1.41280
C1769       C  0.92266705  0.96849724  0.40695857     1.10270
C1770       C  0.91134481  0.90024198  0.64823048     1.10360
C1771       C  0.97660045  0.93255212  0.54982476     1.10300
C1772       C  0.86907691  0.96976121  0.53465812     1.10270
O1773       O  0.73664465  0.69623111  0.14708275    -0.79350
O1774       O  0.84296222  0.60918931  0.05656135    -0.79370
O1775       O  0.80364615  0.69956666  0.01397204    -0.79380
O1776       O  0.77397680  0.61754223  0.18549308    -0.79320
O1777       O  0.81338924  0.65309793  0.00073980    -0.79440
O1778       O  0.75436234  0.64061144  0.11910239    -0.79360
O1779       O  0.81750009  0.59282855  0.12442005    -0.79350
O1780       O  0.75702139  0.68927800  0.07023338    -0.79380
C1781       C  0.73482306  0.69809408  0.09667228     1.10340
C1782       C  0.83152546  0.58829915  0.08208978     1.10230
C1783       C  0.80393870  0.67691116  0.98234191     1.10360
C1784       C  0.75129613  0.62273028  0.15532863     1.10240
O1785       O  0.77380736  0.66848342  0.22342728    -0.79350
O1786       O  0.85614344  0.69674855  0.04588054    -0.79420
O1787       O  0.78710245  0.73962644  0.10239993    -0.79360
O1788       O  0.86270514  0.62880265  0.17789428    -0.79340
O1789       O  0.87937880  0.65356492  0.10999946    -0.79390
O1790       O  0.79337721  0.71469086  0.17454554    -0.79360
O1791       O  0.82089904  0.65799670  0.23182971    -0.79320
O1792       O  0.83998231  0.71143808  0.12026526    -0.79390
Co1793     Co  0.77515954  0.67670848  0.14376340     1.51530
Co1794     Co  0.84514769  0.65335917  0.05788077     1.51690
Co1795     Co  0.79951332  0.69863007  0.09670540     1.51570
Co1796     Co  0.81830801  0.62694116  0.17514503     1.51470
O1797       O  0.81296555  0.65786521  0.11609823    -1.41280
C1798       C  0.79759143  0.66725593  0.25258967     1.10270
C1799       C  0.85440578  0.71725469  0.08063948     1.10360
C1800       C  0.78800583  0.73924149  0.15327566     1.10300
C1801       C  0.88374367  0.64085795  0.15379494     1.10270
O1802       O  0.73793940  0.68751057  0.62342154    -0.79350
O1803       O  0.84206144  0.61015126  0.55223819    -0.79370
O1804       O  0.81516998  0.70392052  0.51371038    -0.79380
O1805       O  0.78405212  0.61549702  0.68009772    -0.79320
O1806       O  0.81928768  0.65704849  0.50162525    -0.79440
O1807       O  0.76488329  0.63389531  0.60760444    -0.79360
O1808       O  0.83594676  0.59659200  0.63588905    -0.79350
O1809       O  0.76578611  0.68538954  0.55450575    -0.79380
C1810       C  0.74035792  0.69076391  0.57348163     1.10340
C1811       C  0.84015829  0.59062463  0.58719580     1.10230
C1812       C  0.81385011  0.68153620  0.48236769     1.10360
C1813       C  0.76246773  0.61680021  0.64545371     1.10240
O1814       O  0.77250105  0.66491793  0.71371589    -0.79350
O1815       O  0.86597531  0.69656158  0.55505268    -0.79420
O1816       O  0.78770079  0.73856947  0.59671175    -0.79360
O1817       O  0.87015415  0.64185827  0.68849877    -0.79340
O1818       O  0.88593799  0.64559003  0.60577466    -0.79390
O1819       O  0.79107972  0.71148465  0.66661260    -0.79360
O1820       O  0.82007999  0.66390832  0.73305926    -0.79320
O1821       O  0.84278663  0.71470661  0.62238153    -0.79390
Co1822     Co  0.77867009  0.67234084  0.63343302     1.51530
Co1823     Co  0.85090103  0.65302085  0.55768862     1.51690
Co1824     Co  0.80503209  0.69913001  0.59222190     1.51570
Co1825     Co  0.82706071  0.63190352  0.67979125     1.51470
O1826       O  0.82031632  0.65944072  0.61632019    -1.41280
C1827       C  0.79397327  0.66771112  0.74863767     1.10270
C1828       C  0.86168587  0.71814420  0.58761742     1.10360
C1829       C  0.78353334  0.73557096  0.64626640     1.10300
C1830       C  0.89070439  0.64153100  0.65507692     1.10270
O1831       O  0.60065411  0.02419148  0.28767982    -0.79350
O1832       O  0.56472850  0.64223660  0.23503805    -0.79370
O1833       O  0.62445308  0.57506758  0.24114885    -0.79380
O1834       O  0.57708879  0.57678687  0.36383327    -0.79320
O1835       O  0.60676755  0.60780241  0.18487238    -0.79440
O1836       O  0.55629039  0.53409279  0.35028889    -0.79360
O1837       O  0.57820713  0.62603534  0.31340856    -0.79350
O1838       O  0.62001250  0.51695227  0.20947551    -0.79380
C1839       C  0.61772591  0.00954351  0.25734575     1.10340
C1840       C  0.57489314  0.64664034  0.28229085     1.10230
C1841       C  0.62882044  0.59620726  0.21054550     1.10360
C1842       C  0.57006592  0.55236628  0.38137848     1.10240
O1843       O  0.51345335  0.54063271  0.25983558    -0.79350
O1844       O  0.55509189  0.57366352  0.13653333    -0.79420
O1845       O  0.55963931  0.01718139  0.19031842    -0.79360
O1846       O  0.51499368  0.61957370  0.27849448    -0.79340
O1847       O  0.51804787  0.60459896  0.19424579    -0.79390
O1848       O  0.54947751  0.99335341  0.26323900    -0.79360
O1849       O  0.51348320  0.56801833  0.33239312    -0.79320
O1850       O  0.59901092  0.55636703  0.14294160    -0.79390
Co1851     Co  0.55693816  0.53446316  0.26923383     1.51530
Co1852     Co  0.56125646  0.60509101  0.19089650     1.51690
Co1853     Co  0.59210090  0.54745778  0.21966935     1.51570
Co1854     Co  0.54727912  0.59648979  0.31801241     1.51470
O1855       O  0.56351799  0.57646431  0.25136876    -1.41280
C1856       C  0.50108965  0.54827557  0.30225063     1.10270
C1857       C  0.57789318  0.56524741  0.11368739     1.10360
C1858       C  0.54785711  0.99478071  0.21271606     1.10300
C1859       C  0.50375366  0.61659229  0.23099769     1.10270
O1860       O  0.56529738  0.00552413  0.79532191    -0.79350
O1861       O  0.58696600  0.63177949  0.75086665    -0.79370
O1862       O  0.63740641  0.56465179  0.73243776    -0.79380
O1863       O  0.57663186  0.59350424  0.85693139    -0.79320
O1864       O  0.61983648  0.59942388  0.68068720    -0.79440
O1865       O  0.56709524  0.54879887  0.86241412    -0.79360
O1866       O  0.54640798  0.62823218  0.79768835    -0.79350
O1867       O  0.60981105  0.02426651  0.79099873    -0.79380
C1868       C  0.59329796  0.00349972  0.80392015     1.10340
C1869       C  0.57029941  0.64166084  0.78668768     1.10230
C1870       C  0.64178981  0.58585535  0.70228360     1.10360
C1871       C  0.57760921  0.57167797  0.88470809     1.10240
O1872       O  0.51168696  0.53504208  0.82757998    -0.79350
O1873       O  0.56323523  0.57678597  0.63322306    -0.79420
O1874       O  0.56924192  0.01000775  0.69666957    -0.79360
O1875       O  0.51265471  0.58166750  0.74657651    -0.79340
O1876       O  0.53233277  0.61434373  0.69607612    -0.79390
O1877       O  0.52778547  0.03268629  0.71813916    -0.79360
O1878       O  0.51365897  0.58222153  0.85372173    -0.79320
O1879       O  0.60196830  0.54836096  0.63948384    -0.79390
Co1880     Co  0.54694685  0.54524876  0.78765378     1.51530
Co1881     Co  0.57548263  0.60330295  0.69367693     1.51690
Co1882     Co  0.60296525  0.53863807  0.71799160     1.51570
Co1883     Co  0.54588163  0.58458116  0.80048118     1.51470
O1884       O  0.57647928  0.57077719  0.74760171    -1.41280
C1885       C  0.00178042  0.55636529  0.85615591     1.10270
C1886       C  0.58122338  0.55969425  0.61148911     1.10360
C1887       C  0.54104208  0.01353792  0.69080620     1.10300
C1888       C  0.50949353  0.60147546  0.71293257     1.10270
C1889       C  0.60407182  0.54974029  0.52208246     0.24390
C1890       C  0.57856881  0.55412505  0.55254992    -0.23720
C1891       C  0.55054867  0.55556775  0.52538210     0.19290
C1892       C  0.54779780  0.55131326  0.47001195     0.24330
C1893       C  0.57322196  0.54815524  0.43955652    -0.23670
C1894       C  0.60147655  0.54779937  0.46596424     0.19230
F1895       F  0.62661087  0.54699026  0.43738418    -0.13620
F1896       F  0.63171438  0.54991503  0.54618403    -0.15990
F1897       F  0.52035053  0.55306428  0.44558449    -0.15990
F1898       F  0.52587969  0.56311992  0.55172402    -0.13620
C1899       C  0.60147336  0.55420219  0.97050302     0.24390
C1900       C  0.58308845  0.57385484  0.94330586    -0.23720
C1901       C  0.56491899  0.59241649  0.97317681     0.19290
C1902       C  0.56339971  0.58963740  0.02843204     0.24330
C1903       C  0.58045741  0.56850606  0.05531555    -0.23670
C1904       C  0.60036450  0.55152998  0.02599066     0.19230
F1905       F  0.61799077  0.53165536  0.05060341    -0.13620
F1906       F  0.62087634  0.53793642  0.94341363    -0.15990
F1907       F  0.54490254  0.60751196  0.05545898    -0.15990
F1908       F  0.54690742  0.61190291  0.94835510    -0.13620
C1909       C  0.92484988  0.60681744  0.70023559     0.24390
C1910       C  0.92107984  0.63311433  0.67312775    -0.23720
C1911       C  0.94643941  0.64843882  0.65718340     0.19290
C1912       C  0.97515008  0.63810400  0.66951143     0.24330
C1913       C  0.97905719  0.61165072  0.69676207    -0.23670
C1914       C  0.95343281  0.59596601  0.71107445     0.19230
F1915       F  0.95593283  0.56957768  0.73407689    -0.13620
F1916       F  0.90068735  0.59070584  0.71363821    -0.15990
F1917       F  0.99904240  0.65418925  0.65487540    -0.15990
F1918       F  0.94339414  0.67356709  0.62997398    -0.13620
C1919       C  0.72710065  0.58747237  0.70023524     0.24390
C1920       C  0.73214488  0.60481855  0.65582315    -0.23720
C1921       C  0.70704821  0.61487357  0.62608498     0.19290
C1922       C  0.67807022  0.60948222  0.64226134     0.24330
C1923       C  0.67295924  0.59296415  0.68762619    -0.23670
C1924       C  0.69788405  0.58141751  0.71573179     0.19230
F1925       F  0.69415776  0.56462742  0.75892308    -0.13620
F1926       F  0.75041887  0.57671190  0.72932961    -0.15990
F1927       F  0.65498322  0.62042712  0.61275761    -0.15990
F1928       F  0.71023620  0.63090930  0.58179317    -0.13620
C1929       C  0.78136370  0.64957694  0.83970786     0.24390
C1930       C  0.78968977  0.67294496  0.80773777    -0.23720
C1931       C  0.79964072  0.69915741  0.83429567     0.19290
C1932       C  0.80202710  0.70154840  0.89097571     0.24330
C1933       C  0.79547685  0.67743522  0.92293108    -0.23670
C1934       C  0.78433122  0.65168302  0.89603830     0.19230
F1935       F  0.77725193  0.62783029  0.92437983    -0.13620
F1936       F  0.77233116  0.62373669  0.81619723    -0.15990
F1937       F  0.81282130  0.72681409  0.91427650    -0.15990
F1938       F  0.80834300  0.72217069  0.80519340    -0.13620
C1939       C  0.77957723  0.66051965  0.34529849     0.24390
C1940       C  0.79860778  0.67491485  0.31094036    -0.23720
C1941       C  0.82173029  0.69301316  0.33388552     0.19290
C1942       C  0.82465679  0.69781748  0.38961221     0.24330
C1943       C  0.80625612  0.68258315  0.42396488    -0.23670
C1944       C  0.78435311  0.66317642  0.40095362     0.19230
F1945       F  0.76918589  0.64489226  0.43231135    -0.13620
F1946       F  0.75834528  0.64146230  0.32502814    -0.15990
F1947       F  0.84741025  0.71501717  0.41014129    -0.15990
F1948       F  0.84237630  0.70507773  0.30243710    -0.13620
C1949       C  0.93934304  0.64247539  0.14394351     0.24390
C1950       C  0.91482165  0.63888270  0.17681259    -0.23720
C1951       C  0.92046198  0.63157804  0.23073288     0.19290
C1952       C  0.94969743  0.62622090  0.25004930     0.24330
C1953       C  0.97372196  0.62767054  0.21572737    -0.23670
C1954       C  0.96828497  0.63693783  0.16310392     0.19230
F1955       F  0.99108899  0.63990463  0.12926655    -0.13620
F1956       F  0.93537324  0.64983627  0.09207181    -0.15990
F1957       F  0.95424386  0.61810868  0.30135619    -0.15990
F1958       F  0.89766224  0.62899323  0.26460829    -0.13620
C1959       C  0.66646502  0.61682611  0.14930071     0.24390
C1960       C  0.66024014  0.60411168  0.19825507    -0.23720
C1961       C  0.68455212  0.59547477  0.23145920     0.19290
C1962       C  0.71418065  0.60002715  0.21655126     0.24330
C1963       C  0.72033788  0.61316754  0.16788516    -0.23670
C1964       C  0.69592578  0.62104142  0.13417200     0.19230
F1965       F  0.70036355  0.63310030  0.08612764    -0.13620
F1966       F  0.64401272  0.62443905  0.11476811    -0.15990
F1967       F  0.73677542  0.59202496  0.25039871    -0.15990
F1968       F  0.67974981  0.58272025  0.27874790    -0.13620
C1969       C  0.51242959  0.94341577  0.62449480     0.24390
C1970       C  0.99627709  0.95346444  0.57978494    -0.23720
C1971       C  0.99232200  0.98371835  0.57451856     0.19290
C1972       C  0.50525890  0.00344897  0.61280578     0.24330
C1973       C  0.52370978  0.99327658  0.65453794    -0.23670
C1974       C  0.52572807  0.96310352  0.66152901     0.19230
F1975       F  0.53723193  0.95265473  0.70760934    -0.13620
F1976       F  0.51344799  0.91441982  0.63456705    -0.15990
F1977       F  0.49797545  0.53203546  0.61171033    -0.15990
F1978       F  0.97387440  0.99389130  0.53526940    -0.13620
C1979       C  0.97100735  0.98444214  0.37491250     0.24390
C1980       C  0.94030825  0.48960441  0.37686303    -0.23720
C1981       C  0.92861062  0.51434486  0.35147582     0.19290
C1982       C  0.94799303  0.53394345  0.32615661     0.24330
C1983       C  0.97884374  0.52828728  0.32487829    -0.23670
C1984       C  0.98963147  0.00304784  0.34901716     0.19230
F1985       F  0.51859137  0.99555413  0.34794382    -0.13620
F1986       F  0.98361972  0.96085746  0.39800585    -0.15990
F1987       F  0.93676066  0.55815970  0.30319996    -0.15990
F1988       F  0.89900772  0.52006560  0.35291064    -0.13620
C1989       C  0.86205420  0.77198753  0.61316316     0.24390
C1990       C  0.87280410  0.74907333  0.58005773    -0.23720
C1991       C  0.89034203  0.75710576  0.53704339     0.19290
C1992       C  0.89630036  0.78692544  0.52700441     0.24330
C1993       C  0.88420911  0.80959194  0.55887211    -0.23590
C1994       C  0.86716821  0.80142946  0.60219443     0.19230
F1995       F  0.85547000  0.82202104  0.63505225    -0.13620
F1996       F  0.84574474  0.76623578  0.65637372    -0.15990
F1997       F  0.91347023  0.79353391  0.48534435    -0.15990
F1998       F  0.90140088  0.73621246  0.50414309    -0.13620
C1999       C  0.83432797  0.50724800  0.57582530     0.24390
C2000       C  0.86094801  0.50045714  0.55008295    -0.23720
C2001       C  0.87987734  0.52392895  0.53614617     0.19290
C2002       C  0.87214762  0.55295628  0.54629982     0.24330
C2003       C  0.84569880  0.55969468  0.57176083    -0.23670
C2004       C  0.82696843  0.53661192  0.58710548     0.19230
F2005       F  0.80132315  0.54254551  0.61225514    -0.13620
F2006       F  0.81520907  0.98563030  0.58932846    -0.15990
F2007       F  0.89144449  0.57461781  0.53346986    -0.15990
F2008       F  0.90650119  0.51899716  0.51346285    -0.13620
C2009       C  0.91171305  0.94056814  0.77887402     0.24390
C2010       C  0.90699576  0.91770590  0.81361461    -0.23720
C2011       C  0.90877157  0.88852603  0.79518933     0.19290
C2012       C  0.91286144  0.88232317  0.74107049     0.24330
C2013       C  0.91567385  0.90535319  0.70567463    -0.23670
C2014       C  0.91630154  0.93444557  0.72527277     0.19230
F2015       F  0.92005304  0.95699248  0.69179997    -0.13620
F2016       F  0.91173383  0.96879972  0.79684887    -0.15990
F2017       F  0.91169550  0.85413938  0.72267505    -0.15990
F2018       F  0.90489963  0.86619730  0.82902767    -0.13620
C2019       C  0.89298522  0.89445272  0.23418829     0.24390
C2020       C  0.91701231  0.88660524  0.20296922    -0.23720
C2021       C  0.94460431  0.87975369  0.22764975     0.19290
C2022       C  0.94874032  0.88329150  0.28313653     0.24330
C2023       C  0.92488400  0.89245794  0.31423557    -0.23670
C2024       C  0.89671672  0.89707942  0.28921556     0.19230
F2025       F  0.87313918  0.90641598  0.31736322    -0.13620
F2026       F  0.86599289  0.90068807  0.21103427    -0.15990
F2027       F  0.97614255  0.87876269  0.30604534    -0.15990
F2028       F  0.96809412  0.87215092  0.19775667    -0.13620
C2029       C  0.98282716  0.94533168  0.16799567     0.24390
C2030       C  0.98904748  0.93917076  0.11457203    -0.23720
C2031       C  0.51558574  0.95032282  0.09407760     0.19290
C2032       C  0.53565045  0.96713685  0.12671995     0.24330
C2033       C  0.52942680  0.97323895  0.18040975    -0.23670
C2034       C  0.50310291  0.96152284  0.20096505     0.19230
F2035       F  0.49564357  0.96768898  0.25185308    -0.13620
F2036       F  0.95599531  0.93788802  0.18719712    -0.15990
F2037       F  0.56071901  0.97817880  0.10539977    -0.15990
F2038       F  0.52109221  0.94672102  0.04149551    -0.13620
C2039       C  0.97173280  0.51766326  0.96841238     0.24390
C2040       C  0.94506513  0.50670241  0.94368202    -0.23720
C2041       C  0.93264540  0.02105084  0.89966757     0.19290
C2042       C  0.94964971  0.54219429  0.87446115     0.24330
C2043       C  0.97871685  0.54938707  0.89401903    -0.23670
C2044       C  0.98850713  0.53893224  0.94360901     0.19230
F2045       F  0.51650982  0.54538668  0.96323399    -0.13620
F2046       F  0.98366854  0.50465530  0.01222134    -0.15990
F2047       F  0.93937231  0.05264343  0.82732109    -0.15990
F2048       F  0.90632236  0.01155280  0.87647104    -0.13620
C2049       C  0.86821539  0.75872315  0.02024963     0.24390
C2050       C  0.86199114  0.74877589  0.07135111    -0.23720
C2051       C  0.85884469  0.77005079  0.11287368     0.19290
C2052       C  0.86150748  0.80009393  0.10345512     0.24330
C2053       C  0.86811827  0.80998164  0.05260259    -0.23670
C2054       C  0.87136606  0.78882746  0.01107566     0.19230
F2055       F  0.87775778  0.79730864  0.96120901    -0.13620
F2056       F  0.87091061  0.73939868  0.97878062    -0.15990
F2057       F  0.85908749  0.81943137  0.14502361    -0.15990
F2058       F  0.85341707  0.76187082  0.16332478    -0.13620
C2059       C  0.87115856  0.52000125  0.03292642     0.24390
C2060       C  0.85030470  0.49733192  0.04053230    -0.23720
C2061       C  0.82236498  0.50497931  0.06036542     0.19290
C2062       C  0.81569388  0.53450234  0.07257171     0.24330
C2063       C  0.83657341  0.55721287  0.06391912    -0.23670
C2064       C  0.86421490  0.54942141  0.04307007     0.19230
F2065       F  0.88554799  0.57017557  0.03582689    -0.13620
F2066       F  0.89915630  0.51374101  0.01864879    -0.15990
F2067       F  0.78885218  0.54083846  0.09315128    -0.15990
F2068       F  0.80182408  0.98376445  0.06938611    -0.13620
C2069       C  0.69339819  0.72183987  0.97658910     0.24390
C2070       C  0.68771142  0.75137801  0.99017109    -0.23720
C2071       C  0.69092899  0.76047248  0.04429013     0.19290
C2072       C  0.70232191  0.74118626  0.08255171     0.24330
C2073       C  0.71066181  0.71274663  0.06710780    -0.23670
C2074       C  0.70428290  0.70282229  0.01465389     0.19230
F2075       F  0.71146526  0.67522993  0.99887972    -0.13620
F2076       F  0.68979120  0.71124266  0.92575930    -0.15990
F2077       F  0.70774614  0.75111500  0.13345489    -0.15990
F2078       F  0.68470313  0.78832375  0.05973525    -0.13620
C2079       C  0.75468121  0.80423190  0.71650619     0.24390
C2080       C  0.73891579  0.79104374  0.75769902    -0.23720
C2081       C  0.73833350  0.76057616  0.76060292     0.19290
C2082       C  0.75165143  0.74364404  0.72249328     0.24330
C2083       C  0.76809151  0.75619199  0.68178028    -0.23670
C2084       C  0.76949702  0.78678580  0.67876698     0.19230
F2085       F  0.78476758  0.79960849  0.63966572    -0.13620
F2086       F  0.75503612  0.83373828  0.71208863    -0.15990
F2087       F  0.74659118  0.71446652  0.72419182    -0.15990
F2088       F  0.72237330  0.74655994  0.79761505    -0.13620
C2089       C  0.76735659  0.86432661  0.88160835     0.24390
C2090       C  0.74413792  0.86278686  0.91814741    -0.23720
C2091       C  0.75101307  0.86973513  0.97205710     0.19290
C2092       C  0.77995071  0.87866265  0.98903137     0.24330
C2093       C  0.80337027  0.88073854  0.95264006    -0.23670
C2094       C  0.79665905  0.87290689  0.89867790     0.19230
F2095       F  0.81820821  0.87410207  0.86207471    -0.13620
F2096       F  0.76176995  0.85732426  0.82926036    -0.15990
F2097       F  0.78465757  0.88582006  0.04157761    -0.15990
F2098       F  0.72925511  0.86924481  0.00839224    -0.13620
C2099       C  0.55242432  0.86828129  0.95308130     0.24390
C2100       C  0.55560816  0.85091624  0.90651077    -0.23720
C2101       C  0.52962132  0.84171783  0.87684990     0.19290
C2102       C  0.00115985  0.85081953  0.89279681     0.24330
C2103       C  0.49857960  0.86844125  0.93924590    -0.23670
C2104       C  0.52445163  0.87622045  0.96961493     0.19230
F2105       F  0.52262785  0.89084041  0.01709092    -0.13620
F2106       F  0.57639607  0.87650744  0.98495016    -0.15990
F2107       F  0.97643627  0.84297123  0.86265642    -0.15990
F2108       F  0.53180675  0.82440163  0.83244835    -0.13620
C2109       C  0.57199667  0.71643577  0.85610954     0.24390
C2110       C  0.60295455  0.72192292  0.85811993    -0.23720
C2111       C  0.62248153  0.69974548  0.84335875     0.19290
C2112       C  0.61149523  0.67298973  0.82397122     0.24330
C2113       C  0.58055543  0.66808711  0.81704659    -0.23670
C2114       C  0.56074064  0.68941424  0.83559732     0.19230
F2115       F  0.53074806  0.68499048  0.83017808    -0.13620
F2116       F  0.55281233  0.73788984  0.86958510    -0.15990
F2117       F  0.63134134  0.65228717  0.80946057    -0.15990
F2118       F  0.65239086  0.70486900  0.84348172    -0.13620
C2119       C  0.61214532  0.92441873  0.80282285     0.24390
C2120       C  0.63056921  0.92170804  0.84949005    -0.23720
C2121       C  0.63855992  0.94700421  0.87968072     0.19290
C2122       C  0.62738817  0.97415286  0.86427479     0.24330
C2123       C  0.60679419  0.97597501  0.82076385    -0.23670
C2124       C  0.60126922  0.95128456  0.78840358     0.19230
F2125       F  0.58835213  0.95379688  0.73931928    -0.13620
F2126       F  0.60519050  0.90131163  0.76929591    -0.15990
F2127       F  0.63842251  0.99856302  0.88927294    -0.15990
F2128       F  0.65801627  0.94570228  0.92229664    -0.13620
C2129       C  0.61244108  0.81194219  0.59160908     0.24390
C2130       C  0.63846709  0.81937795  0.56473702    -0.23720
C2131       C  0.66601097  0.82197012  0.59307758     0.19290
C2132       C  0.66810998  0.81446051  0.64553530     0.24330
C2133       C  0.64247621  0.80757612  0.67272856    -0.23670
C2134       C  0.61440555  0.80688571  0.64628752     0.19230
F2135       F  0.58926225  0.80155126  0.67330114    -0.13620
F2136       F  0.58533954  0.81027389  0.56554822    -0.15990
F2137       F  0.69537760  0.81545238  0.67042814    -0.15990
F2138       F  0.69154644  0.83039766  0.56969535    -0.13620
C2139       C  0.64264463  0.85605042  0.15646500     0.24390
C2140       C  0.63102422  0.83174950  0.18229807    -0.23720
C2141       C  0.60989487  0.81325277  0.15538964     0.19290
C2142       C  0.60454811  0.81614749  0.10067680     0.24330
C2143       C  0.61999386  0.83786649  0.07351563    -0.23670
C2144       C  0.63623352  0.85969872  0.10287685     0.19230
F2145       F  0.64922004  0.88266680  0.07883273    -0.13620
F2146       F  0.66281517  0.87468212  0.18145901    -0.15990
F2147       F  0.58685722  0.79597753  0.07381593    -0.15990
F2148       F  0.59722914  0.79044196  0.18026829    -0.13620
C2149       C  0.70436913  0.73035278  0.55361924     0.24390
C2150       C  0.71711520  0.70395079  0.53779073    -0.23720
C2151       C  0.71343255  0.69487779  0.48361603     0.19290
C2152       C  0.69916520  0.71276538  0.44556544     0.24330
C2153       C  0.68775974  0.74006070  0.46113079    -0.23670
C2154       C  0.69001599  0.74795922  0.51603831     0.19230
F2155       F  0.67945016  0.77368417  0.53356482    -0.13620
F2156       F  0.70778631  0.74037641  0.60496381    -0.15990
F2157       F  0.69628196  0.70322101  0.39391796    -0.15990
F2158       F  0.72346792  0.66845112  0.46768073    -0.13620
C2159       C  0.78296988  0.76065833  0.24490561     0.24390
C2160       C  0.77988680  0.76409706  0.18905592    -0.23720
C2161       C  0.76205015  0.78688427  0.17006278     0.19290
C2162       C  0.74403468  0.80240199  0.20531450     0.24330
C2163       C  0.74386332  0.79537602  0.25968704    -0.23670
C2164       C  0.76454845  0.77560266  0.27973116     0.19230
F2165       F  0.76490082  0.76867348  0.33210290    -0.13620
F2166       F  0.80158064  0.74049189  0.26551650    -0.15990
F2167       F  0.72456052  0.82220702  0.18545820    -0.15990
F2168       F  0.75933128  0.79184381  0.11698875    -0.13620
C2169       C  0.78790549  0.91817953  0.41877736     0.24390
C2170       C  0.80848871  0.89667735  0.43338477    -0.23720
C2171       C  0.79902409  0.86724851  0.43530862     0.19290
C2172       C  0.76906761  0.85972489  0.42658216     0.24330
C2173       C  0.74833024  0.88136404  0.41455752    -0.23670
C2174       C  0.75790291  0.91045986  0.40894526     0.19230
F2175       F  0.73792664  0.93153466  0.39657530    -0.13620
F2176       F  0.79634585  0.94677630  0.41784678    -0.15990
F2177       F  0.76031887  0.83127343  0.42933242    -0.15990
F2178       F  0.81873587  0.84588414  0.44746237    -0.13620
C2179       C  0.53455407  0.84759975  0.39768855     0.24390
C2180       C  0.56065148  0.85754774  0.42601837    -0.23720
C2181       C  0.55792867  0.86874475  0.47868345     0.19290
C2182       C  0.53035879  0.86886372  0.50283553     0.24330
C2183       C  0.50442266  0.85882937  0.47484903    -0.23670
C2184       C  0.50665686  0.84866511  0.42162388     0.19230
F2185       F  0.98191836  0.83900790  0.39325501    -0.13620
F2186       F  0.53605469  0.83645643  0.34716841    -0.15990
F2187       F  0.52904706  0.87949652  0.55363608    -0.15990
F2188       F  0.58219183  0.87844215  0.50839403    -0.13620
C2189       C  0.57031378  0.68453839  0.35364912     0.24390
C2190       C  0.58092638  0.67611500  0.30342437    -0.23720
C2191       C  0.59792850  0.69557797  0.27490564     0.19290
C2192       C  0.60469614  0.72321815  0.29649266     0.24330
C2193       C  0.59394801  0.73202654  0.34681536    -0.23670
C2194       C  0.57667038  0.71243284  0.37516036     0.19230
F2195       F  0.56576226  0.72025857  0.42319966    -0.13620
F2196       F  0.55328410  0.66587484  0.38135897    -0.15990
F2197       F  0.62225500  0.74107438  0.26812549    -0.15990
F2198       F  0.60893178  0.68742574  0.22706214    -0.13620
C2199       C  0.64286069  0.95193061  0.35141534     0.24390
C2200       C  0.63911927  0.92670173  0.31825235    -0.23720
C2201       C  0.63079379  0.92983010  0.26405126     0.19290
C2202       C  0.62729119  0.95738996  0.24304357     0.24330
C2203       C  0.63028866  0.98236894  0.27638722    -0.23670
C2204       C  0.63810197  0.97951824  0.33064580     0.19230
F2205       F  0.64057992  0.50345410  0.36365085    -0.13620
F2206       F  0.65058479  0.95004243  0.40407012    -0.15990
F2207       F  0.61837534  0.95944172  0.19091833    -0.15990
F2208       F  0.62471399  0.90625151  0.23151096    -0.13620
loop_ 
_geom_bond_atom_site_label_1 
_geom_bond_atom_site_label_2 
_geom_bond_distance 
_geom_bond_site_symmetry_2 
_ccdc_geom_bond_type 
O1            C9   1.264       .  A
O1          Co21   2.007       .  S
O2           C10   1.254       .  A
O2          Co22   1.977       .  S
O3           C11   1.240       .  A
O3          Co23   1.948       .  S
O4           C12   1.264       .  A
O4          Co24   1.973       .  S
O5           C11   1.240       .  A
O5          Co22   1.971       .  S
O6           C12   1.277       .  A
O6          Co21   2.029       .  S
O7           C10   1.265       .  A
O7          Co24   1.981       .  S
O8            C9   1.253       .  A
O8          Co23   1.949       .  S
C9          C544   1.473       .  S
C10         C537   1.468       .  S
C11         C484   1.456       .  S
C12         C524   1.491       .  S
O13          C26   1.250       .  A
O13         Co21   1.936       .  S
O14          C27   1.267       .  A
O14         Co22   2.009       .  S
O15          C28   1.248       .  A
O15         Co23   1.981       .  S
O16          C29   1.248       .  A
O16         Co24   1.973       .  S
O17          C29   1.265       .  A
O17         Co22   2.037       .  S
O18          C28   1.252       .  A
O18         Co21   1.977       .  S
O19          C26   1.248       .  A
O19         Co24   1.992       .  S
O20          C27   1.257       .  A
O20         Co23   1.967       .  S
Co21         O25   2.092       .  S
Co22         O25   2.174       .  S
Co23         O25   2.124       .  S
Co24         O25   2.074       .  S
C26         C474   1.453       .  S
C27         C507   1.468       .  S
C28         C517   1.455       .  S
C29         C497   1.508       .  S
O30          C38   1.292   1_556  A
O30         Co50   1.939       .  S
O31          C39   1.255       .  A
O31         Co51   1.966       .  S
O32          C40   1.261       .  A
O32         Co52   1.987       .  S
O33          C41   1.282       .  A
O33         Co53   2.040       .  S
O34          C40   1.261       .  A
O34         Co51   1.980       .  S
O35          C41   1.274       .  A
O35         Co50   1.986       .  S
O36          C39   1.258       .  A
O36         Co53   1.999       .  S
O37          C38   1.295   1_556  A
O37         Co52   1.980       .  S
C38         C487   1.462       .  S
C39         C424   1.472       .  S
C40         C414   1.489       .  S
C41         C434   1.497       .  S
O42          C55   1.266       .  A
O42         Co50   2.033       .  S
O43          C56   1.261       .  A
O43         Co51   1.964       .  S
O44          C57   1.238       .  A
O44         Co52   1.978       .  S
O45          C58   1.259       .  A
O45         Co53   1.943       .  S
O46          C58   1.273       .  A
O46         Co51   2.004       .  S
O47          C57   1.256       .  A
O47         Co50   2.039       .  S
O48          C55   1.243       .  A
O48         Co53   1.920       .  S
O49          C56   1.268       .  A
O49         Co52   2.007       .  S
Co50         O54   2.037       .  S
Co51         O54   1.997       .  S
Co52         O54   2.009       .  S
Co53         O54   2.012       .  S
C55         C464   1.474       .  S
C56         C454   1.461       .  S
C57         C444   1.484       .  S
C58         C477   1.435       .  S
O59          C67   1.250       .  A
O59         Co79   1.976       .  S
O60          C68   1.268   1_554  A
O60         Co80   1.997       .  S
O61          C69   1.263       .  A
O61         Co81   1.948       .  S
O62          C70   1.278       .  A
O62         Co82   1.885       .  S
O63          C69   1.293       .  A
O63         Co80   2.081       .  S
O64          C70   1.294       .  A
O64         Co79   2.083       .  S
O65          C68   1.274       .  A
O65         Co82   2.014       .  S
O66          C67   1.254       .  A
O66         Co81   2.004   1_556  S
C67        C1551   1.478       .  S
C68         C437   1.509       .  S
C69         C397   1.497       .  S
C70         C354   1.455       .  S
O71          C84   1.249       .  A
O71         Co79   1.866       .  S
O72          C85   1.256       .  A
O72         Co80   1.952       .  S
O73          C86   1.287       .  A
O73         Co81   2.060       .  S
O74          C87   1.276   1_556  A
O74         Co82   2.026       .  S
O75          C87   1.271       .  A
O75         Co80   2.010       .  S
O76          C86   1.266       .  A
O76         Co79   1.955   1_554  S
O77          C84   1.294       .  A
O77         Co82   2.130       .  S
O78          C85   1.262       .  A
O78         Co81   2.006       .  S
Co79         O83   1.957   1_556  S
Co80         O83   2.018       .  S
Co81         O83   2.056       .  S
Co82         O83   2.021   1_556  S
C84         C936   1.468       .  S
C85         C364   1.462       .  S
C86         C374   1.475       .  S
C87         C956   1.502       .  S
O88          C96   1.289       .  A
O88        Co108   2.044       .  S
O89          C97   1.253       .  A
O89        Co109   1.942       .  S
O90          C98   1.259       .  A
O90        Co110   1.995       .  S
O91          C99   1.294       .  A
O91        Co111   2.041       .  S
O92          C98   1.276       .  A
O92        Co109   2.038       .  S
O93          C99   1.281       .  A
O93        Co108   1.911       .  S
O94          C97   1.263       .  A
O94        Co111   1.994       .  S
O95          C96   1.281       .  A
O95        Co110   1.922       .  S
C96        C1631   1.482       .  S
C97         C514   1.463       .  S
C98         C337   1.507       .  S
C99         C367   1.471       .  S
O100        C113   1.281       .  A
O100       Co108   2.048       .  S
O101        C114   1.265       .  A
O101       Co109   1.947       .  S
O102        C115   1.250       .  A
O102       Co110   1.946       .  S
O103        C116   1.257       .  A
O103       Co111   1.958       .  S
O104        C116   1.280       .  A
O104       Co109   2.050       .  S
O105        C115   1.265       .  A
O105       Co108   2.007       .  S
O106        C113   1.268       .  A
O106       Co111   1.958       .  S
O107        C114   1.277       .  A
O107       Co110   2.013       .  S
Co108       O112   2.079       .  S
Co109       O112   2.012       .  S
Co110       O112   1.916       .  S
Co111       O112   2.003       .  S
C113        C876   1.479       .  S
C114        C357   1.459       .  S
C115        C314   1.466       .  S
C116        C896   1.500       .  S
O117        C125   1.269       .  A
O117       Co137   1.957       .  S
O118        C126   1.276       .  A
O118       Co138   2.021       .  S
O119        C127   1.289   1_554  A
O119       Co139   2.091       .  S
O120        C128   1.273       .  A
O120       Co140   2.053       .  S
O121        C127   1.266   1_554  A
O121       Co138   1.982       .  S
O122        C128   1.248       .  A
O122       Co137   1.960       .  S
O123        C126   1.267       .  A
O123       Co140   1.987       .  S
O124        C125   1.279       .  A
O124       Co139   2.030       .  S
C125        C417   1.469       .  S
C126        C407   1.505       .  S
C127        C277   1.525       .  S
C128        C307   1.495       .  S
O129        C142   1.273       .  A
O129       Co137   2.045       .  S
O130        C143   1.269       .  A
O130       Co138   2.071       .  S
O131        C144   1.276       .  A
O131       Co139   1.966       .  S
O132        C145   1.266       .  A
O132       Co140   1.988       .  S
O133        C145   1.266       .  A
O133       Co138   1.978       .  S
O134        C144   1.278       .  A
O134       Co137   2.032       .  S
O135        C142   1.257       .  A
O135       Co140   1.983       .  S
O136        C143   1.237       .  A
O136       Co139   1.963       .  S
Co137       O141   2.046       .  S
Co138       O141   2.097       .  S
Co139       O141   2.033       .  S
Co140       O141   2.084       .  S
C142        C284   1.495       .  S
C143        C394   1.503       .  S
C144        C504   1.487       .  S
C145        C294   1.492       .  S
O146        C154   1.273       .  A
O146       Co166   1.970       .  S
O147        C155   1.272       .  A
O147       Co167   1.996       .  S
O148        C156   1.274       .  A
O148       Co168   2.053       .  S
O149        C157   1.279       .  A
O149       Co169   2.059       .  S
O150        C156   1.255       .  A
O150       Co167   1.973       .  S
O151        C157   1.252       .  A
O151       Co166   1.944       .  S
O152        C155   1.266       .  A
O152       Co169   1.984       .  S
O153        C154   1.275       .  A
O153       Co168   2.049       .  S
C154        C494   1.492       .  S
C155        C347   1.484       .  S
C156        C287   1.494       .  S
C157        C264   1.492       .  S
O158        C171   1.280       .  A
O158       Co166   2.078       .  S
O159        C172   1.286       .  A
O159       Co167   2.098       .  S
O160        C173   1.274       .  A
O160       Co168   1.976       .  S
O161        C174   1.267       .  A
O161       Co169   1.980       .  S
O162        C174   1.266       .  A
O162       Co167   1.983       .  S
O163        C173   1.271       .  A
O163       Co166   2.018       .  S
O164        C171   1.259       .  A
O164       Co169   1.992       .  S
O165        C172   1.248       .  A
O165       Co168   1.946       .  S
Co166       O170   2.021       .  S
Co167       O170   2.064       .  S
Co168       O170   2.047       .  S
Co169       O170   2.071       .  S
C171        C274   1.515       .  S
C172        C334   1.513       .  S
C173        C427   1.476       .  S
C174        C254   1.477       .  S
O175        C183   1.281       .  A
O175       Co747   2.060       .  S
O176        C184   1.264       .  A
O176       Co196   2.005       .  S
O177        C185   1.267       .  A
O177       Co197   1.961       .  S
O178        C186   1.252       .  A
O178       Co198   1.972       .  S
O179        C185   1.287       .  A
O179       Co196   2.052       .  S
O180        C186   1.267       .  A
O180       Co195   2.034       .  S
O181        C184   1.246       .  A
O181       Co198   1.931       .  S
O182        C735   1.262       .  A
O182       Co197   1.904       .  S
C183        O734   1.262       .  A
C183        C547   1.456       .  S
C184        C534   1.454       .  S
C185        C304   1.493       .  S
C186        C237   1.478       .  S
O187        C200   1.260       .  A
O187       Co195   1.978       .  S
O188        C201   1.249       .  A
O188       Co196   1.965       .  S
O189        C202   1.296       .  A
O189       Co749   2.096       .  S
O190        C203   1.280       .  A
O190       Co198   2.044       .  S
O191        C203   1.259       .  A
O191       Co196   1.940       .  S
O192        C202   1.270       .  A
O192       Co747   1.907       .  S
O193        C200   1.271       .  A
O193       Co198   2.032       .  S
O194        C201   1.254       .  A
O194       Co197   2.011       .  S
Co195       O727   2.060       .  S
Co195       O744   1.907   1_545  S
Co195       O199   2.005       .  S
Co196       O199   2.030       .  S
Co197       O741   2.096       .  S
Co197       O199   2.024       .  S
Co198       O199   2.046       .  S
C200       C1431   1.481   1_455  S
C201        C247   1.484       .  S
C202        C377   1.483       .  S
C203       C1401   1.485   1_455  S
O204        C212   1.270       .  A
O204       Co776   2.015       .  S
O205        C213   1.267       .  A
O205       Co225   1.962       .  S
O206        C214   1.263       .  A
O206       Co226   1.954       .  S
O207        C215   1.232       .  A
O207       Co227   1.970       .  S
O208        C214   1.281       .  A
O208       Co225   2.034       .  S
O209        C215   1.252       .  A
O209       Co224   2.053       .  S
O210        C213   1.269       .  A
O210       Co227   2.000       .  S
O211        C212   1.253       .  A
O211       Co778   1.976       .  S
C212        C467   1.469       .  S
C213        C457   1.471       .  S
C214        C267   1.490       .  S
C215        C244   1.482       .  S
O216       C1333   1.289       .  A
O216       Co224   1.958       .  S
O217        C230   1.259       .  A
O217       Co225   1.974       .  S
O218        C231   1.279       .  A
O218       Co778   2.034       .  S
O219        C232   1.260       .  A
O219       Co227   1.975       .  S
O220        C232   1.265       .  A
O220       Co225   2.007       .  S
O221        C231   1.266       .  A
O221       Co776   1.983       .  S
O222       C1333   1.294       .  A
O222       Co227   2.005       .  S
O223        C230   1.269       .  A
O223       Co226   2.028       .  S
Co224       O756   2.015       .  S
Co224       O773   1.983       .  S
Co224       O228   2.059       .  S
Co225       O228   2.036       .  S
Co226       O763   1.976       .  S
Co226       O770   2.034       .  S
Co226       O228   2.043       .  S
Co227       O228   2.036       .  S
C229       O1320   1.289       .  A
C229       O1326   1.294       .  A
C229        C387   1.466       .  S
C230        C234   1.493       .  S
C231        C317   1.475       .  S
C232       C1361   1.492   1_455  S
C233        C234   1.411       .  A
C233        C238   1.408       .  A
C233        F240   1.358       .  S
C234        C235   1.409       .  A
C235        C236   1.398       .  A
C235        F242   1.352       .  S
C236        C237   1.401       .  A
C236        F241   1.358       .  S
C237        C238   1.408       .  A
C238        F239   1.357       .  S
C243        C244   1.401       .  A
C243        C248   1.402   1_556  A
C243        F250   1.343       .  S
C244        C245   1.405       .  A
C245        C246   1.399   1_556  A
C245        F252   1.358       .  S
C246        C247   1.410       .  A
C246        F251   1.358       .  S
C247        C248   1.405       .  A
C248        F249   1.358       .  S
C253        C254   1.406       .  A
C253        C258   1.399       .  A
C253        F260   1.358       .  S
C254        C255   1.403       .  A
C255        C256   1.403       .  A
C255        F262   1.358       .  S
C256        C257   1.415       .  A
C256        F261   1.358       .  S
C257       C1336   1.492       .  S
C257        C258   1.408       .  A
C258        F259   1.355       .  S
C263        C264   1.407       .  A
C263        C268   1.405       .  A
C263        F270   1.357       .  S
C264        C265   1.415       .  A
C265        C266   1.395       .  A
C265        F272   1.357       .  S
C266        C267   1.406       .  A
C266        F271   1.358       .  S
C267        C268   1.414       .  A
C268        F269   1.358       .  S
C273        C274   1.407       .  A
C273        C278   1.415       .  A
C273        F280   1.358       .  S
C274        C275   1.415       .  A
C275        C276   1.423       .  A
C275        F282   1.357       .  S
C276        C277   1.414       .  A
C276        F281   1.357       .  S
C277        C278   1.418       .  A
C278        F279   1.358       .  S
C283        C284   1.404       .  A
C283        C288   1.406       .  A
C283        F290   1.358       .  S
C284        C285   1.414       .  A
C285        C286   1.410       .  A
C285        F292   1.358       .  S
C286        C287   1.405       .  A
C286        F291   1.358       .  S
C287        C288   1.412       .  A
C288        F289   1.355       .  S
C293        C294   1.407       .  A
C293        C298   1.395       .  A
C293        F300   1.358       .  S
C294        C295   1.416       .  A
C295        C296   1.407       .  A
C295        F302   1.358       .  S
C296        C297   1.404       .  A
C296        F301   1.357       .  S
C297       C1307   1.485       .  S
C297        C298   1.410       .  A
C298        F299   1.359       .  S
C303        C304   1.407       .  A
C303        C308   1.398       .  A
C303        F310   1.358       .  S
C304        C305   1.414       .  A
C305        C306   1.406       .  A
C305        F312   1.358       .  S
C306        C307   1.409       .  A
C306        F311   1.357       .  S
C307        C308   1.414       .  A
C308        F309   1.358       .  S
C313        C318   1.390       .  A
C313       C1418   1.403   1_455  A
C313        F320   1.358       .  S
C314        C315   1.407       .  A
C314       C1417   1.403       .  A
C315       C1420   1.405       .  A
C315        F322   1.358       .  S
C316        C317   1.403       .  A
C316       C1419   1.405   1_455  A
C316        F873   1.353   1_455  S
C317        C318   1.400       .  A
C318        F319   1.350       .  S
F321        C868   1.353   1_655  S
C323        C328   1.375       .  A
C323        C876   1.401       .  A
C323        F330   1.358       .  S
C324        C665   1.479       .  S
C324        C325   1.411   1_565  A
C324        C875   1.401       .  A
C325        C326   1.417       .  A
C325        F332   1.357       .  S
C326        C327   1.411       .  A
C326        F331   1.356       .  S
C327       C1304   1.481       .  S
C327        C880   1.401       .  A
C328        C879   1.401       .  A
C328       F1433   1.347       .  S
F329       C1432   1.347   1_455  S
C333        C334   1.420       .  A
C333        C338   1.399       .  A
C333        F340   1.358       .  S
C334        C335   1.410       .  A
C335        C336   1.417       .  A
C335        F342   1.357       .  S
C336        C337   1.418       .  A
C336        F341   1.357       .  S
C337        C338   1.405       .  A
C338        F339   1.358       .  S
C343        C344   1.411       .  A
C343        C348   1.411       .  A
C343        F902   1.357   1_545  S
C344        C668   1.500   1_545  S
C344        C345   1.418       .  A
C345        C346   1.396       .  A
C345        F352   1.359       .  S
C346        C347   1.400       .  A
C346        F351   1.359       .  S
C347        C348   1.410       .  A
C348        F349   1.357       .  S
F350        C895   1.357       .  S
C353        C354   1.397       .  A
C353        C358   1.389       .  A
C353        F360   1.357       .  S
C354        C355   1.406       .  A
C355        C356   1.398       .  A
C355        F362   1.358       .  S
C356        C357   1.402       .  A
C356        F361   1.358       .  S
C357        C358   1.406       .  A
C358        F359   1.359       .  S
C363        C364   1.399       .  A
C363        C368   1.386       .  A
C363        F370   1.359       .  S
C364        C365   1.405       .  A
C365        C366   1.402       .  A
C365        F372   1.358       .  S
C366        C367   1.407       .  A
C366        F371   1.357       .  S
C367        C368   1.410       .  A
C368        F369   1.359       .  S
C373        C374   1.400       .  A
C373       C1482   1.398       .  A
C373        F380   1.353       .  S
C374       C1479   1.407       .  A
C375        C376   1.402       .  A
C375       C1478   1.407   1_455  A
C375        F382   1.356       .  S
C376        C377   1.406       .  A
C376        F381   1.358       .  S
C377        C378   1.409       .  A
C378       C1477   1.398   1_455  A
C378        F379   1.354   1_455  S
C383        C384   1.406       .  A
C383        C388   1.394       .  A
C383        F390   1.359   1_556  S
C384        C636   1.468   1_545  S
C384        C937   1.400       .  A
C385        C936   1.400       .  A
C385        C938   1.401       .  A
C385        F392   1.357       .  S
C386        C387   1.407       .  A
C386        C937   1.401       .  A
C386        F943   1.354       .  S
C387        C388   1.402       .  A
C388       F1493   1.357       .  S
F389       C1492   1.357   1_455  S
F391        C938   1.354       .  S
C393        C394   1.407       .  A
C393        C398   1.408       .  A
C393        F400   1.357   1_554  S
C394        C395   1.419       .  A
C395        C396   1.405       .  A
C395        F402   1.358       .  S
C396        C397   1.404       .  A
C396        F401   1.358       .  S
C397        C398   1.416       .  A
C398        F399   1.358   1_554  S
C403        C404   1.408   1_545  A
C403        C408   1.404       .  A
C403        F410   1.349       .  S
C404        C639   1.502       .  S
C404        C405   1.408   1_565  A
C405        C406   1.415       .  A
C405        F964   1.357   1_545  S
C406        C407   1.415       .  A
C406        F411   1.357       .  S
C407        C408   1.408       .  A
C408        F409   1.358       .  S
F412        C957   1.357       .  S
C413        C414   1.414       .  A
C413        C418   1.388   1_556  A
C413        F420   1.355       .  S
C414        C415   1.411   1_556  A
C415        C416   1.407       .  A
C415        F422   1.358       .  S
C416        C417   1.407       .  A
C416        F421   1.356       .  S
C417        C418   1.399       .  A
C418        F419   1.359   1_554  S
C423        C424   1.415       .  A
C423        C428   1.412       .  A
C423        F430   1.357       .  S
C424        C425   1.398       .  A
C425        C426   1.373       .  A
C425        F432   1.360       .  S
C426        C427   1.410       .  A
C426        F431   1.353       .  S
C427        C428   1.404       .  A
C428        F429   1.357       .  S
C433        C434   1.413       .  A
C433        C438   1.413       .  A
C433        F440   1.357       .  S
C434        C435   1.403       .  A
C435        C436   1.402       .  A
C435        F442   1.358   1_556  S
C436        C437   1.419       .  A
C436        F441   1.358   1_556  S
C437        C438   1.412       .  A
C438        F439   1.357       .  S
C443        C444   1.408       .  A
C443        C448   1.384       .  A
C443        F450   1.358       .  S
C444        C445   1.412       .  A
C445       C1550   1.415       .  A
C445        F452   1.357       .  S
C446       C1549   1.415       .  A
C446       C1551   1.408       .  A
C446        F451   1.357       .  S
C447       C1171   1.478       .  S
C447        C448   1.400   1_655  A
C447       C1550   1.408   1_655  A
C448        F449   1.356   1_556  S
C453        C454   1.405       .  A
C453        C458   1.407       .  A
C453        F460   1.357       .  S
C454        C455   1.400       .  A
C455        C456   1.383       .  A
C455        F462   1.357       .  S
C456        C457   1.405       .  A
C456        F461   1.359       .  S
C457        C458   1.409       .  A
C458        F459   1.357       .  S
C463        C464   1.416       .  A
C463        C468   1.380       .  A
C463        F470   1.359       .  S
C464        C465   1.402       .  A
C465        C466   1.403       .  A
C465        F472   1.357       .  S
C466        C467   1.408       .  A
C466        F471   1.346       .  S
C467        C468   1.388       .  A
C468        F469   1.349       .  S
C473        C474   1.410       .  A
C473        C478   1.396       .  A
C473        F480   1.358       .  S
C474        C475   1.404       .  A
C475        C476   1.368       .  A
C475        F482   1.360       .  S
C476        C477   1.393       .  A
C476        F481   1.351       .  S
C477        C478   1.400       .  A
C478        F479   1.358       .  S
C483        C484   1.404       .  A
C483        C488   1.379       .  A
C483        F490   1.359       .  S
C484        C485   1.404       .  A
C485        C486   1.394       .  A
C485        F492   1.358       .  S
C486        C487   1.407       .  A
C486        F491   1.358       .  S
C487        C488   1.405       .  A
C488        F489   1.359       .  S
C493        C494   1.397       .  A
C493        C498   1.400       .  A
C493        F500   1.358       .  S
C494        C495   1.414       .  A
C495        C496   1.414       .  A
C495        F502   1.351       .  S
C496        C497   1.407       .  A
C496        F501   1.357       .  S
C497        C498   1.414       .  A
C498        F499   1.344       .  S
C503        C504   1.415       .  A
C503        C508   1.395       .  A
C503        F510   1.352       .  S
C504        C505   1.404       .  A
C505        C506   1.404       .  A
C505        F512   1.357       .  S
C506        C507   1.409       .  A
C506        F511   1.357       .  S
C507        C508   1.393       .  A
C508        F509   1.358       .  S
C513        C514   1.404       .  A
C513        C518   1.397       .  A
C513        F520   1.358       .  S
C514        C515   1.409       .  A
C515        C516   1.389       .  A
C515        F522   1.359       .  S
C516        C517   1.398       .  A
C516        F521   1.358       .  S
C517        C518   1.405       .  A
C518        F519   1.358       .  S
C523        C524   1.410       .  A
C523        C528   1.407       .  A
C523        F530   1.358       .  S
C524        C525   1.414       .  A
C525        C526   1.395       .  A
C525        F532   1.358       .  S
C526        C527   1.401       .  A
C526        F531   1.355       .  S
C527       C1200   1.482   1_455  S
C527        C528   1.409       .  A
C528       F1633   1.358   1_455  S
F529       C1632   1.358       .  S
C533        C534   1.408       .  A
C533        C538   1.394       .  A
C533        F540   1.358       .  S
C534        C535   1.392       .  A
C535        C536   1.388       .  A
C535        F542   1.359       .  S
C536        C537   1.418       .  A
C536        F541   1.358       .  S
C537        C538   1.401       .  A
C538        F539   1.358       .  S
C543        C544   1.410       .  A
C543        C548   1.394       .  A
C543        F550   1.358       .  S
C544        C545   1.408       .  A
C545        C546   1.388       .  A
C545        F552   1.354       .  S
C546        C547   1.401       .  A
C546        F551   1.359       .  S
C547        C548   1.402       .  A
C548       F1101   1.357       .  S
F549       C1100   1.357   1_545  S
O553        C561   1.264       .  A
O553       Co573   2.007       .  S
O554        C562   1.254       .  A
O554       Co574   1.977       .  S
O555        C563   1.240       .  A
O555       Co575   1.948       .  S
O556        C564   1.264       .  A
O556       Co576   1.973       .  S
O557        C563   1.240       .  A
O557       Co574   1.971       .  S
O558        C564   1.277       .  A
O558       Co573   2.029       .  S
O559        C562   1.265       .  A
O559       Co576   1.981       .  S
O560        C561   1.253       .  A
O560       Co575   1.949       .  S
C561       C1096   1.473       .  S
C562       C1089   1.468       .  S
C563       C1036   1.456       .  S
C564       C1076   1.491       .  S
O565        C578   1.250       .  A
O565       Co573   1.936       .  S
O566        C579   1.267       .  A
O566       Co574   2.009       .  S
O567        C580   1.248       .  A
O567       Co575   1.981       .  S
O568        C581   1.248       .  A
O568       Co576   1.973       .  S
O569        C581   1.265       .  A
O569       Co574   2.037       .  S
O570        C580   1.252       .  A
O570       Co573   1.977       .  S
O571        C578   1.248       .  A
O571       Co576   1.992       .  S
O572        C579   1.257       .  A
O572       Co575   1.967       .  S
Co573       O577   2.092       .  S
Co574       O577   2.174       .  S
Co575       O577   2.124       .  S
Co576       O577   2.074       .  S
C578       C1026   1.453       .  S
C579       C1059   1.468       .  S
C580       C1069   1.455       .  S
C581       C1049   1.508       .  S
O582        C590   1.292   1_556  A
O582       Co602   1.939       .  S
O583        C591   1.255       .  A
O583       Co603   1.966       .  S
O584        C592   1.261       .  A
O584       Co604   1.987       .  S
O585        C593   1.282       .  A
O585       Co605   2.040       .  S
O586        C592   1.261       .  A
O586       Co603   1.980       .  S
O587        C593   1.274       .  A
O587       Co602   1.986       .  S
O588        C591   1.258       .  A
O588       Co605   1.999       .  S
O589        C590   1.295   1_556  A
O589       Co604   1.980       .  S
C590       C1039   1.462       .  S
C591        C976   1.472       .  S
C592        C966   1.489       .  S
C593        C986   1.497       .  S
O594        C607   1.266       .  A
O594       Co602   2.033       .  S
O595        C608   1.261       .  A
O595       Co603   1.964       .  S
O596        C609   1.238       .  A
O596       Co604   1.978       .  S
O597        C610   1.259       .  A
O597       Co605   1.943       .  S
O598        C610   1.273       .  A
O598       Co603   2.004       .  S
O599        C609   1.256       .  A
O599       Co602   2.039       .  S
O600        C607   1.243       .  A
O600       Co605   1.920       .  S
O601        C608   1.268       .  A
O601       Co604   2.007       .  S
Co602       O606   2.037       .  S
Co603       O606   1.997       .  S
Co604       O606   2.009       .  S
Co605       O606   2.012       .  S
C607       C1016   1.474       .  S
C608       C1006   1.461       .  S
C609        C996   1.484       .  S
C610       C1029   1.435       .  S
O611        C619   1.250       .  A
O611       Co631   1.976       .  S
O612        C620   1.268   1_554  A
O612       Co632   1.997       .  S
O613        C621   1.263       .  A
O613       Co633   1.948       .  S
O614        C622   1.278       .  A
O614       Co634   1.885       .  S
O615        C621   1.293       .  A
O615       Co632   2.081       .  S
O616        C622   1.294       .  A
O616       Co631   2.083       .  S
O617        C620   1.274       .  A
O617       Co634   2.014       .  S
O618        C619   1.254       .  A
O618       Co633   2.004   1_556  S
C619       C2103   1.478       .  S
C620        C989   1.509       .  S
C621        C949   1.497       .  S
C622        C906   1.455       .  S
O623        C636   1.249       .  A
O623       Co631   1.866       .  S
O624        C637   1.256       .  A
O624       Co632   1.952       .  S
O625        C638   1.287       .  A
O625       Co633   2.060       .  S
O626        C639   1.276   1_556  A
O626       Co634   2.026       .  S
O627        C639   1.271       .  A
O627       Co632   2.010       .  S
O628        C638   1.266       .  A
O628       Co631   1.955   1_554  S
O629        C636   1.294       .  A
O629       Co634   2.130       .  S
O630        C637   1.262       .  A
O630       Co633   2.006       .  S
Co631       O635   1.957   1_556  S
Co632       O635   2.018       .  S
Co633       O635   2.056       .  S
Co634       O635   2.021   1_556  S
C637        C916   1.462       .  S
C638        C926   1.475       .  S
O640        C648   1.289       .  A
O640       Co660   2.044       .  S
O641        C649   1.253       .  A
O641       Co661   1.942       .  S
O642        C650   1.259       .  A
O642       Co662   1.995       .  S
O643        C651   1.294       .  A
O643       Co663   2.041       .  S
O644        C650   1.276       .  A
O644       Co661   2.038       .  S
O645        C651   1.281       .  A
O645       Co660   1.911       .  S
O646        C649   1.263       .  A
O646       Co663   1.993       .  S
O647        C648   1.281       .  A
O647       Co662   1.922       .  S
C648       C2183   1.482       .  S
C649       C1066   1.463       .  S
C650        C889   1.507       .  S
C651        C919   1.471       .  S
O652        C665   1.281       .  A
O652       Co660   2.048       .  S
O653        C666   1.265       .  A
O653       Co661   1.947       .  S
O654        C667   1.250       .  A
O654       Co662   1.946       .  S
O655        C668   1.257       .  A
O655       Co663   1.958       .  S
O656        C668   1.280       .  A
O656       Co661   2.050       .  S
O657        C667   1.265       .  A
O657       Co660   2.007       .  S
O658        C665   1.268       .  A
O658       Co663   1.958       .  S
O659        C666   1.277       .  A
O659       Co662   2.013       .  S
Co660       O664   2.079       .  S
Co661       O664   2.012       .  S
Co662       O664   1.916       .  S
Co663       O664   2.003       .  S
C666        C909   1.459       .  S
C667        C866   1.466       .  S
O669        C677   1.269       .  A
O669       Co689   1.957       .  S
O670        C678   1.276       .  A
O670       Co690   2.021       .  S
O671        C679   1.289   1_554  A
O671       Co691   2.091       .  S
O672        C680   1.273       .  A
O672       Co692   2.053       .  S
O673        C679   1.266   1_554  A
O673       Co690   1.982       .  S
O674        C680   1.248       .  A
O674       Co689   1.960       .  S
O675        C678   1.267       .  A
O675       Co692   1.987       .  S
O676        C677   1.279       .  A
O676       Co691   2.030       .  S
C677        C969   1.469       .  S
C678        C959   1.505       .  S
C679        C829   1.525       .  S
C680        C859   1.495       .  S
O681        C694   1.273       .  A
O681       Co689   2.045       .  S
O682        C695   1.269       .  A
O682       Co690   2.071       .  S
O683        C696   1.276       .  A
O683       Co691   1.966       .  S
O684        C697   1.266       .  A
O684       Co692   1.988       .  S
O685        C697   1.266       .  A
O685       Co690   1.978       .  S
O686        C696   1.278       .  A
O686       Co689   2.032       .  S
O687        C694   1.257       .  A
O687       Co692   1.983       .  S
O688        C695   1.237       .  A
O688       Co691   1.963       .  S
Co689       O693   2.046       .  S
Co690       O693   2.097       .  S
Co691       O693   2.033       .  S
Co692       O693   2.084       .  S
C694        C836   1.495       .  S
C695        C946   1.503       .  S
C696       C1056   1.487       .  S
C697        C846   1.492       .  S
O698        C706   1.273       .  A
O698       Co718   1.970       .  S
O699        C707   1.272       .  A
O699       Co719   1.996       .  S
O700        C708   1.274       .  A
O700       Co720   2.053       .  S
O701        C709   1.279       .  A
O701       Co721   2.059       .  S
O702        C708   1.255       .  A
O702       Co719   1.973       .  S
O703        C709   1.252       .  A
O703       Co718   1.944       .  S
O704        C707   1.266       .  A
O704       Co721   1.984       .  S
O705        C706   1.275       .  A
O705       Co720   2.049       .  S
C706       C1046   1.492       .  S
C707        C899   1.484       .  S
C708        C839   1.494       .  S
C709        C816   1.492       .  S
O710        C723   1.280       .  A
O710       Co718   2.078       .  S
O711        C724   1.286       .  A
O711       Co719   2.098       .  S
O712        C725   1.274       .  A
O712       Co720   1.976       .  S
O713        C726   1.267       .  A
O713       Co721   1.980       .  S
O714        C726   1.266       .  A
O714       Co719   1.983       .  S
O715        C725   1.271       .  A
O715       Co718   2.018       .  S
O716        C723   1.259       .  A
O716       Co721   1.992       .  S
O717        C724   1.248       .  A
O717       Co720   1.946       .  S
Co718       O722   2.021       .  S
Co719       O722   2.064       .  S
Co720       O722   2.047       .  S
Co721       O722   2.071       .  S
C723        C826   1.515       .  S
C724        C886   1.513       .  S
C725        C979   1.476       .  S
C726        C806   1.477       .  S
O727        C735   1.281       .  A
O728        C736   1.264       .  A
O728       Co748   2.005       .  S
O729        C737   1.267       .  A
O729       Co749   1.961       .  S
O730        C738   1.252       .  A
O730       Co750   1.972       .  S
O731        C737   1.287       .  A
O731       Co748   2.052       .  S
O732        C738   1.267       .  A
O732       Co747   2.034       .  S
O733        C736   1.246       .  A
O733       Co750   1.931       .  S
O734       Co749   1.904       .  S
C735       C1099   1.456   1_545  S
C736       C1086   1.454       .  S
C737        C856   1.493       .  S
C738        C789   1.478       .  S
O739        C752   1.260       .  A
O739       Co747   1.978       .  S
O740        C753   1.249       .  A
O740       Co748   1.966       .  S
O741        C754   1.296   1_545  A
O742        C755   1.280       .  A
O742       Co750   2.044       .  S
O743        C755   1.259       .  A
O743       Co748   1.940       .  S
O744        C754   1.270       .  A
O745        C752   1.271       .  A
O745       Co750   2.032       .  S
O746        C753   1.254       .  A
O746       Co749   2.011       .  S
Co747       O751   2.005       .  S
Co748       O751   2.030       .  S
Co749       O751   2.024       .  S
Co750       O751   2.046       .  S
C752       C1983   1.481   1_455  S
C753        C799   1.484       .  S
C754        C929   1.483       .  S
C755       C1953   1.485   1_455  S
O756        C764   1.270       .  A
O757        C765   1.267       .  A
O757       Co777   1.962       .  S
O758        C766   1.263       .  A
O758       Co778   1.954       .  S
O759        C767   1.232       .  A
O759       Co779   1.970       .  S
O760        C766   1.281       .  A
O760       Co777   2.034       .  S
O761        C767   1.252       .  A
O761       Co776   2.053       .  S
O762        C765   1.269       .  A
O762       Co779   2.000       .  S
O763        C764   1.253       .  A
C764       C1019   1.469   1_545  S
C765       C1009   1.471       .  S
C766        C819   1.490       .  S
C767        C796   1.482       .  S
O768       C1885   1.289       .  A
O768       Co776   1.958       .  S
O769        C782   1.259       .  A
O769       Co777   1.974       .  S
O770        C783   1.279       .  A
O771        C784   1.260       .  A
O771       Co779   1.975       .  S
O772        C784   1.265       .  A
O772       Co777   2.007       .  S
O773        C783   1.266       .  A
O774       C1885   1.294       .  A
O774       Co779   2.005       .  S
O775        C782   1.269       .  A
O775       Co778   2.028       .  S
Co776       O780   2.059       .  S
Co777       O780   2.036       .  S
Co778       O780   2.043       .  S
Co779       O780   2.036       .  S
C781       O1872   1.289       .  A
C781       O1878   1.294       .  A
C781        C939   1.466       .  S
C782        C786   1.494       .  S
C783        C869   1.475   1_545  S
C784       C1913   1.492   1_455  S
C785        C786   1.411       .  A
C785        C790   1.408       .  A
C785        F792   1.358       .  S
C786        C787   1.409       .  A
C787        C788   1.398       .  A
C787        F794   1.352       .  S
C788        C789   1.401       .  A
C788        F793   1.358       .  S
C789        C790   1.408       .  A
C790        F791   1.357       .  S
C795        C796   1.401       .  A
C795        C800   1.402   1_556  A
C795        F802   1.343       .  S
C796        C797   1.405       .  A
C797        C798   1.399   1_556  A
C797        F804   1.358       .  S
C798        C799   1.410       .  A
C798        F803   1.358       .  S
C799        C800   1.405       .  A
C800        F801   1.358       .  S
C805        C806   1.406       .  A
C805        C810   1.399       .  A
C805        F812   1.358       .  S
C806        C807   1.403       .  A
C807        C808   1.403       .  A
C807        F814   1.358       .  S
C808        C809   1.415       .  A
C808        F813   1.358       .  S
C809       C1888   1.492       .  S
C809        C810   1.408       .  A
C810        F811   1.355       .  S
C815        C816   1.407       .  A
C815        C820   1.405       .  A
C815        F822   1.357       .  S
C816        C817   1.415       .  A
C817        C818   1.395       .  A
C817        F824   1.357       .  S
C818        C819   1.406       .  A
C818        F823   1.358       .  S
C819        C820   1.414       .  A
C820        F821   1.358       .  S
C825        C826   1.407       .  A
C825        C830   1.415       .  A
C825        F832   1.358       .  S
C826        C827   1.415       .  A
C827        C828   1.423       .  A
C827        F834   1.357       .  S
C828        C829   1.414       .  A
C828        F833   1.357       .  S
C829        C830   1.418       .  A
C830        F831   1.358       .  S
C835        C836   1.404       .  A
C835        C840   1.406       .  A
C835        F842   1.358       .  S
C836        C837   1.414       .  A
C837        C838   1.410       .  A
C837        F844   1.358       .  S
C838        C839   1.405       .  A
C838        F843   1.358       .  S
C839        C840   1.412       .  A
C840        F841   1.355       .  S
C845        C846   1.407       .  A
C845        C850   1.395       .  A
C845        F852   1.358       .  S
C846        C847   1.416       .  A
C847        C848   1.407       .  A
C847        F854   1.358       .  S
C848        C849   1.404       .  A
C848        F853   1.357       .  S
C849       C1859   1.485       .  S
C849        C850   1.410       .  A
C850        F851   1.359       .  S
C855        C856   1.407       .  A
C855        C860   1.398       .  A
C855        F862   1.358       .  S
C856        C857   1.414       .  A
C857        C858   1.406       .  A
C857        F864   1.358       .  S
C858        C859   1.409       .  A
C858        F863   1.357       .  S
C859        C860   1.414       .  A
C860        F861   1.358       .  S
C865       C1970   1.403   1_455  A
C865        C870   1.390       .  A
C865        F872   1.358       .  S
C866       C1969   1.403       .  A
C866        C867   1.407       .  A
C867       C1972   1.405   1_565  A
C867        F874   1.358       .  S
C868       C1971   1.405   1_445  A
C868        C869   1.403   1_545  A
C869        C870   1.400       .  A
C870        F871   1.350       .  S
C875        C880   1.375   1_565  A
C875        F882   1.358       .  S
C876        C877   1.411       .  A
C877        C878   1.417       .  A
C877        F884   1.357       .  S
C878        C879   1.411       .  A
C878        F883   1.356       .  S
C879       C1856   1.481       .  S
C880       F1985   1.347   1_545  S
F881       C1984   1.347   1_465  S
C885        C886   1.420       .  A
C885        C890   1.399       .  A
C885        F892   1.358       .  S
C886        C887   1.410       .  A
C887        C888   1.417       .  A
C887        F894   1.357       .  S
C888        C889   1.418       .  A
C888        F893   1.357       .  S
C889        C890   1.405       .  A
C890        F891   1.358       .  S
C895        C896   1.411       .  A
C895        C900   1.411       .  A
C896        C897   1.418       .  A
C897        C898   1.396       .  A
C897        F904   1.359       .  S
C898        C899   1.400       .  A
C898        F903   1.359       .  S
C899        C900   1.410       .  A
C900        F901   1.357       .  S
C905        C906   1.397       .  A
C905        C910   1.389       .  A
C905        F912   1.357       .  S
C906        C907   1.406       .  A
C907        C908   1.398       .  A
C907        F914   1.358       .  S
C908        C909   1.402       .  A
C908        F913   1.358       .  S
C909        C910   1.406       .  A
C910        F911   1.359       .  S
C915        C916   1.399       .  A
C915        C920   1.386       .  A
C915        F922   1.359       .  S
C916        C917   1.405       .  A
C917        C918   1.402       .  A
C917        F924   1.358       .  S
C918        C919   1.407       .  A
C918        F923   1.357       .  S
C919        C920   1.410       .  A
C920        F921   1.359       .  S
C925        C926   1.400       .  A
C925       C2034   1.398       .  A
C925        F932   1.353       .  S
C926       C2031   1.407       .  A
C927       C2030   1.407   1_455  A
C927        C928   1.402       .  A
C927        F934   1.356       .  S
C928        C929   1.406       .  A
C928        F933   1.358       .  S
C929        C930   1.409       .  A
C930       C2029   1.398   1_455  A
C930        F931   1.354   1_455  S
C935        C936   1.406       .  A
C935        C940   1.394       .  A
C935        F942   1.359   1_556  S
C937        F944   1.357       .  S
C938        C939   1.407       .  A
C939        C940   1.402       .  A
C940       F2045   1.357       .  S
F941       C2044   1.357   1_455  S
C945        C946   1.407       .  A
C945        C950   1.408       .  A
C945        F952   1.357   1_554  S
C946        C947   1.419       .  A
C947        C948   1.405       .  A
C947        F954   1.358       .  S
C948        C949   1.404       .  A
C948        F953   1.358       .  S
C949        C950   1.416       .  A
C950        F951   1.358   1_554  S
C955        C956   1.408       .  A
C955        C960   1.404       .  A
C955        F962   1.349       .  S
C956        C957   1.408       .  A
C957        C958   1.415       .  A
C958        C959   1.415       .  A
C958        F963   1.357       .  S
C959        C960   1.408       .  A
C960        F961   1.358       .  S
C965        C966   1.414       .  A
C965        C970   1.388   1_556  A
C965        F972   1.355       .  S
C966        C967   1.411   1_556  A
C967        C968   1.407       .  A
C967        F974   1.358       .  S
C968        C969   1.407       .  A
C968        F973   1.356       .  S
C969        C970   1.399       .  A
C970        F971   1.359   1_554  S
C975        C976   1.415       .  A
C975        C980   1.412       .  A
C975        F982   1.357       .  S
C976        C977   1.398       .  A
C977        C978   1.373       .  A
C977        F984   1.360       .  S
C978        C979   1.410       .  A
C978        F983   1.353       .  S
C979        C980   1.404       .  A
C980        F981   1.357       .  S
C985        C986   1.413       .  A
C985        C990   1.413       .  A
C985        F992   1.357       .  S
C986        C987   1.403       .  A
C987        C988   1.402       .  A
C987        F994   1.358   1_556  S
C988        C989   1.419       .  A
C988        F993   1.358   1_556  S
C989        C990   1.412       .  A
C990        F991   1.357       .  S
C995        C996   1.408       .  A
C995       C1000   1.384       .  A
C995       F1002   1.358       .  S
C996        C997   1.412       .  A
C997       C2102   1.415       .  A
C997       F1004   1.357       .  S
C998       C2101   1.415       .  A
C998       C2103   1.408       .  A
C998       F1003   1.357       .  S
C999       C1723   1.478       .  S
C999       C2102   1.408   1_655  A
C999       C1000   1.400   1_655  A
C1000      F1001   1.356   1_556  S
C1005      C1006   1.405       .  A
C1005      C1010   1.407       .  A
C1005      F1012   1.357       .  S
C1006      C1007   1.400       .  A
C1007      C1008   1.383       .  A
C1007      F1014   1.357       .  S
C1008      C1009   1.405       .  A
C1008      F1013   1.359       .  S
C1009      C1010   1.409       .  A
C1010      F1011   1.357       .  S
C1015      C1016   1.416       .  A
C1015      C1020   1.380       .  A
C1015      F1022   1.359       .  S
C1016      C1017   1.402       .  A
C1017      C1018   1.403       .  A
C1017      F1024   1.357       .  S
C1018      C1019   1.408       .  A
C1018      F1023   1.346       .  S
C1019      C1020   1.388       .  A
C1020      F1021   1.349       .  S
C1025      C1026   1.410       .  A
C1025      C1030   1.396       .  A
C1025      F1032   1.358       .  S
C1026      C1027   1.404       .  A
C1027      C1028   1.368       .  A
C1027      F1034   1.360       .  S
C1028      C1029   1.393       .  A
C1028      F1033   1.351       .  S
C1029      C1030   1.400       .  A
C1030      F1031   1.358       .  S
C1035      C1036   1.404       .  A
C1035      C1040   1.379       .  A
C1035      F1042   1.359       .  S
C1036      C1037   1.404       .  A
C1037      C1038   1.394       .  A
C1037      F1044   1.358       .  S
C1038      C1039   1.407       .  A
C1038      F1043   1.358       .  S
C1039      C1040   1.405       .  A
C1040      F1041   1.359       .  S
C1045      C1046   1.397       .  A
C1045      C1050   1.400       .  A
C1045      F1052   1.358       .  S
C1046      C1047   1.414       .  A
C1047      C1048   1.414       .  A
C1047      F1054   1.351       .  S
C1048      C1049   1.407       .  A
C1048      F1053   1.357       .  S
C1049      C1050   1.414       .  A
C1050      F1051   1.344       .  S
C1055      C1056   1.415       .  A
C1055      C1060   1.395       .  A
C1055      F1062   1.352       .  S
C1056      C1057   1.404       .  A
C1057      C1058   1.404       .  A
C1057      F1064   1.357       .  S
C1058      C1059   1.409       .  A
C1058      F1063   1.357       .  S
C1059      C1060   1.393       .  A
C1060      F1061   1.358       .  S
C1065      C1066   1.404       .  A
C1065      C1070   1.397       .  A
C1065      F1072   1.358       .  S
C1066      C1067   1.409       .  A
C1067      C1068   1.389       .  A
C1067      F1074   1.359       .  S
C1068      C1069   1.398       .  A
C1068      F1073   1.358       .  S
C1069      C1070   1.405       .  A
C1070      F1071   1.358       .  S
C1075      C1076   1.410       .  A
C1075      C1080   1.407       .  A
C1075      F1082   1.358       .  S
C1076      C1077   1.414       .  A
C1077      C1078   1.395       .  A
C1077      F1084   1.358       .  S
C1078      C1079   1.401       .  A
C1078      F1083   1.355       .  S
C1079      C1752   1.482   1_455  S
C1079      C1080   1.409       .  A
C1080      F2185   1.358   1_455  S
F1081      C2184   1.358       .  S
C1085      C1086   1.408       .  A
C1085      C1090   1.394       .  A
C1085      F1092   1.358       .  S
C1086      C1087   1.392       .  A
C1087      C1088   1.388       .  A
C1087      F1094   1.359       .  S
C1088      C1089   1.418       .  A
C1088      F1093   1.358       .  S
C1089      C1090   1.401       .  A
C1090      F1091   1.358       .  S
C1095      C1096   1.410       .  A
C1095      C1100   1.394       .  A
C1095      F1102   1.358       .  S
C1096      C1097   1.408       .  A
C1097      C1098   1.388       .  A
C1097      F1104   1.354       .  S
C1098      C1099   1.401       .  A
C1098      F1103   1.359       .  S
C1099      C1100   1.402       .  A
O1105      C1113   1.264       .  A
O1105     Co1125   2.007       .  S
O1106      C1114   1.254       .  A
O1106     Co1126   1.977       .  S
O1107      C1115   1.240       .  A
O1107     Co1127   1.948       .  S
O1108      C1116   1.264       .  A
O1108     Co1128   1.973       .  S
O1109      C1115   1.240       .  A
O1109     Co1126   1.971       .  S
O1110      C1116   1.277       .  A
O1110     Co1125   2.029       .  S
O1111      C1114   1.265       .  A
O1111     Co1128   1.981       .  S
O1112      C1113   1.253       .  A
O1112     Co1127   1.949       .  S
C1113      C1648   1.473       .  S
C1114      C1641   1.468       .  S
C1115      C1588   1.456       .  S
C1116      C1628   1.491       .  S
O1117      C1130   1.250       .  A
O1117     Co1125   1.936       .  S
O1118      C1131   1.267       .  A
O1118     Co1126   2.009       .  S
O1119      C1132   1.248       .  A
O1119     Co1127   1.981       .  S
O1120      C1133   1.248       .  A
O1120     Co1128   1.973       .  S
O1121      C1133   1.265       .  A
O1121     Co1126   2.037       .  S
O1122      C1132   1.252       .  A
O1122     Co1125   1.977       .  S
O1123      C1130   1.248       .  A
O1123     Co1128   1.992       .  S
O1124      C1131   1.257       .  A
O1124     Co1127   1.967       .  S
Co1125     O1129   2.092       .  S
Co1126     O1129   2.174       .  S
Co1127     O1129   2.124       .  S
Co1128     O1129   2.074       .  S
C1130      C1578   1.453       .  S
C1131      C1611   1.468       .  S
C1132      C1621   1.455       .  S
C1133      C1601   1.508       .  S
O1134      C1142   1.292   1_556  A
O1134     Co1154   1.939       .  S
O1135      C1143   1.255       .  A
O1135     Co1155   1.966       .  S
O1136      C1144   1.261       .  A
O1136     Co1156   1.987       .  S
O1137      C1145   1.282       .  A
O1137     Co1157   2.040       .  S
O1138      C1144   1.261       .  A
O1138     Co1155   1.980       .  S
O1139      C1145   1.274       .  A
O1139     Co1154   1.986       .  S
O1140      C1143   1.258       .  A
O1140     Co1157   1.999       .  S
O1141      C1142   1.295   1_556  A
O1141     Co1156   1.980       .  S
C1142      C1591   1.462       .  S
C1143      C1528   1.472       .  S
C1144      C1518   1.489       .  S
C1145      C1538   1.497       .  S
O1146      C1159   1.266       .  A
O1146     Co1154   2.033       .  S
O1147      C1160   1.261       .  A
O1147     Co1155   1.964       .  S
O1148      C1161   1.238       .  A
O1148     Co1156   1.978       .  S
O1149      C1162   1.259       .  A
O1149     Co1157   1.943       .  S
O1150      C1162   1.273       .  A
O1150     Co1155   2.004       .  S
O1151      C1161   1.256       .  A
O1151     Co1154   2.039       .  S
O1152      C1159   1.243       .  A
O1152     Co1157   1.920       .  S
O1153      C1160   1.268       .  A
O1153     Co1156   2.007       .  S
Co1154     O1158   2.037       .  S
Co1155     O1158   1.997       .  S
Co1156     O1158   2.009       .  S
Co1157     O1158   2.012       .  S
C1159      C1568   1.474       .  S
C1160      C1558   1.461       .  S
C1161      C1548   1.484       .  S
C1162      C1581   1.435       .  S
O1163      C1171   1.250       .  A
O1163     Co1183   1.976       .  S
O1164      C1172   1.268   1_554  A
O1164     Co1184   1.997       .  S
O1165      C1173   1.263       .  A
O1165     Co1185   1.948       .  S
O1166      C1174   1.278       .  A
O1166     Co1186   1.885       .  S
O1167      C1173   1.293       .  A
O1167     Co1184   2.081       .  S
O1168      C1174   1.294       .  A
O1168     Co1183   2.083       .  S
O1169      C1172   1.274       .  A
O1169     Co1186   2.014       .  S
O1170      C1171   1.254       .  A
O1170     Co1185   2.004   1_556  S
C1172      C1541   1.509       .  S
C1173      C1501   1.497       .  S
C1174      C1458   1.455       .  S
O1175      C1188   1.249       .  A
O1175     Co1183   1.866       .  S
O1176      C1189   1.256       .  A
O1176     Co1184   1.952       .  S
O1177      C1190   1.287       .  A
O1177     Co1185   2.060       .  S
O1178      C1191   1.276   1_556  A
O1178     Co1186   2.026       .  S
O1179      C1191   1.271       .  A
O1179     Co1184   2.010       .  S
O1180      C1190   1.266       .  A
O1180     Co1183   1.955   1_554  S
O1181      C1188   1.294       .  A
O1181     Co1186   2.130       .  S
O1182      C1189   1.262       .  A
O1182     Co1185   2.006       .  S
Co1183     O1187   1.957   1_556  S
Co1184     O1187   2.018       .  S
Co1185     O1187   2.056       .  S
Co1186     O1187   2.021   1_556  S
C1188      C2040   1.468       .  S
C1189      C1468   1.462       .  S
C1190      C1478   1.475       .  S
C1191      C2060   1.502       .  S
O1192      C1200   1.289       .  A
O1192     Co1212   2.044       .  S
O1193      C1201   1.253       .  A
O1193     Co1213   1.942       .  S
O1194      C1202   1.259       .  A
O1194     Co1214   1.995       .  S
O1195      C1203   1.294       .  A
O1195     Co1215   2.041       .  S
O1196      C1202   1.276       .  A
O1196     Co1213   2.038       .  S
O1197      C1203   1.281       .  A
O1197     Co1212   1.911       .  S
O1198      C1201   1.263       .  A
O1198     Co1215   1.994       .  S
O1199      C1200   1.281       .  A
O1199     Co1214   1.922       .  S
C1201      C1618   1.463       .  S
C1202      C1441   1.507       .  S
C1203      C1471   1.471       .  S
O1204      C1217   1.281       .  A
O1204     Co1212   2.048       .  S
O1205      C1218   1.265       .  A
O1205     Co1213   1.947       .  S
O1206      C1219   1.250       .  A
O1206     Co1214   1.946       .  S
O1207      C1220   1.257       .  A
O1207     Co1215   1.958       .  S
O1208      C1220   1.280       .  A
O1208     Co1213   2.050       .  S
O1209      C1219   1.265       .  A
O1209     Co1212   2.007       .  S
O1210      C1217   1.268       .  A
O1210     Co1215   1.958       .  S
O1211      C1218   1.277       .  A
O1211     Co1214   2.013       .  S
Co1212     O1216   2.079       .  S
Co1213     O1216   2.012       .  S
Co1214     O1216   1.916       .  S
Co1215     O1216   2.003       .  S
C1217      C1980   1.479       .  S
C1218      C1461   1.459       .  S
C1219      C1418   1.466       .  S
C1220      C2000   1.500       .  S
O1221      C1229   1.269       .  A
O1221     Co1241   1.957       .  S
O1222      C1230   1.276       .  A
O1222     Co1242   2.021       .  S
O1223      C1231   1.289   1_554  A
O1223     Co1243   2.091       .  S
O1224      C1232   1.273       .  A
O1224     Co1244   2.053       .  S
O1225      C1231   1.266   1_554  A
O1225     Co1242   1.982       .  S
O1226      C1232   1.248       .  A
O1226     Co1241   1.960       .  S
O1227      C1230   1.267       .  A
O1227     Co1244   1.987       .  S
O1228      C1229   1.279       .  A
O1228     Co1243   2.030       .  S
C1229      C1521   1.469       .  S
C1230      C1511   1.505       .  S
C1231      C1381   1.525       .  S
C1232      C1411   1.495       .  S
O1233      C1246   1.273       .  A
O1233     Co1241   2.045       .  S
O1234      C1247   1.269       .  A
O1234     Co1242   2.071       .  S
O1235      C1248   1.276       .  A
O1235     Co1243   1.966       .  S
O1236      C1249   1.266       .  A
O1236     Co1244   1.988       .  S
O1237      C1249   1.266       .  A
O1237     Co1242   1.978       .  S
O1238      C1248   1.278       .  A
O1238     Co1241   2.032       .  S
O1239      C1246   1.257       .  A
O1239     Co1244   1.983       .  S
O1240      C1247   1.237       .  A
O1240     Co1243   1.963       .  S
Co1241     O1245   2.046       .  S
Co1242     O1245   2.097       .  S
Co1243     O1245   2.033       .  S
Co1244     O1245   2.084       .  S
C1246      C1388   1.495       .  S
C1247      C1498   1.503       .  S
C1248      C1608   1.487       .  S
C1249      C1398   1.492       .  S
O1250      C1258   1.273       .  A
O1250     Co1270   1.970       .  S
O1251      C1259   1.272       .  A
O1251     Co1271   1.996       .  S
O1252      C1260   1.274       .  A
O1252     Co1272   2.053       .  S
O1253      C1261   1.279       .  A
O1253     Co1273   2.059       .  S
O1254      C1260   1.255       .  A
O1254     Co1271   1.973       .  S
O1255      C1261   1.252       .  A
O1255     Co1270   1.944       .  S
O1256      C1259   1.266       .  A
O1256     Co1273   1.984       .  S
O1257      C1258   1.275       .  A
O1257     Co1272   2.049       .  S
C1258      C1598   1.492       .  S
C1259      C1451   1.484       .  S
C1260      C1391   1.494       .  S
C1261      C1368   1.492       .  S
O1262      C1275   1.280       .  A
O1262     Co1270   2.078       .  S
O1263      C1276   1.286       .  A
O1263     Co1271   2.098       .  S
O1264      C1277   1.274       .  A
O1264     Co1272   1.976       .  S
O1265      C1278   1.267       .  A
O1265     Co1273   1.980       .  S
O1266      C1278   1.266       .  A
O1266     Co1271   1.983       .  S
O1267      C1277   1.271       .  A
O1267     Co1270   2.018       .  S
O1268      C1275   1.259       .  A
O1268     Co1273   1.992       .  S
O1269      C1276   1.248       .  A
O1269     Co1272   1.946       .  S
Co1270     O1274   2.021       .  S
Co1271     O1274   2.064       .  S
Co1272     O1274   2.047       .  S
Co1273     O1274   2.071       .  S
C1275      C1378   1.515       .  S
C1276      C1438   1.513       .  S
C1277      C1531   1.476       .  S
C1278      C1358   1.477       .  S
O1279      C1287   1.281       .  A
O1279     Co1851   2.060       .  S
O1280      C1288   1.264       .  A
O1280     Co1300   2.005       .  S
O1281      C1289   1.267       .  A
O1281     Co1301   1.961       .  S
O1282      C1290   1.252       .  A
O1282     Co1302   1.972       .  S
O1283      C1289   1.287       .  A
O1283     Co1300   2.052       .  S
O1284      C1290   1.267       .  A
O1284     Co1299   2.034       .  S
O1285      C1288   1.246       .  A
O1285     Co1302   1.931       .  S
O1286      C1839   1.262       .  A
O1286     Co1301   1.904       .  S
C1287      O1838   1.262       .  A
C1287      C1651   1.456       .  S
C1288      C1638   1.454       .  S
C1289      C1408   1.493       .  S
C1290      C1341   1.478       .  S
O1291      C1304   1.260       .  A
O1291     Co1299   1.978       .  S
O1292      C1305   1.249       .  A
O1292     Co1300   1.965       .  S
O1293      C1306   1.296       .  A
O1293     Co1853   2.096       .  S
O1294      C1307   1.280       .  A
O1294     Co1302   2.044       .  S
O1295      C1307   1.259       .  A
O1295     Co1300   1.940       .  S
O1296      C1306   1.270       .  A
O1296     Co1851   1.907       .  S
O1297      C1304   1.271       .  A
O1297     Co1302   2.032       .  S
O1298      C1305   1.254       .  A
O1298     Co1301   2.011       .  S
Co1299     O1831   2.060       .  S
Co1299     O1848   1.907   1_545  S
Co1299     O1303   2.005       .  S
Co1300     O1303   2.030       .  S
Co1301     O1845   2.096       .  S
Co1301     O1303   2.024       .  S
Co1302     O1303   2.046       .  S
C1305      C1351   1.484       .  S
C1306      C1481   1.483       .  S
O1308      C1316   1.270       .  A
O1308     Co1880   2.015       .  S
O1309      C1317   1.267       .  A
O1309     Co1329   1.962       .  S
O1310      C1318   1.263       .  A
O1310     Co1330   1.954       .  S
O1311      C1319   1.232       .  A
O1311     Co1331   1.970       .  S
O1312      C1318   1.281       .  A
O1312     Co1329   2.034       .  S
O1313      C1319   1.252       .  A
O1313     Co1328   2.053       .  S
O1314      C1317   1.269       .  A
O1314     Co1331   2.000       .  S
O1315      C1316   1.253       .  A
O1315     Co1882   1.976       .  S
C1316      C1571   1.469       .  S
C1317      C1561   1.471       .  S
C1318      C1371   1.490       .  S
C1319      C1348   1.482       .  S
O1320     Co1328   1.958       .  S
O1321      C1334   1.259       .  A
O1321     Co1329   1.974       .  S
O1322      C1335   1.279       .  A
O1322     Co1882   2.034       .  S
O1323      C1336   1.260       .  A
O1323     Co1331   1.975       .  S
O1324      C1336   1.265       .  A
O1324     Co1329   2.007       .  S
O1325      C1335   1.266       .  A
O1325     Co1880   1.983       .  S
O1326     Co1331   2.005       .  S
O1327      C1334   1.269       .  A
O1327     Co1330   2.028       .  S
Co1328     O1860   2.015       .  S
Co1328     O1877   1.983       .  S
Co1328     O1332   2.059       .  S
Co1329     O1332   2.036       .  S
Co1330     O1867   1.976       .  S
Co1330     O1874   2.034       .  S
Co1330     O1332   2.043       .  S
Co1331     O1332   2.036       .  S
C1333      C1491   1.466   1_455  S
C1334      C1338   1.493       .  S
C1335      C1421   1.475       .  S
C1337      C1338   1.411       .  A
C1337      C1342   1.408       .  A
C1337      F1344   1.358       .  S
C1338      C1339   1.409       .  A
C1339      C1340   1.398       .  A
C1339      F1346   1.352       .  S
C1340      C1341   1.401       .  A
C1340      F1345   1.358       .  S
C1341      C1342   1.408       .  A
C1342      F1343   1.357       .  S
C1347      C1348   1.401       .  A
C1347      C1352   1.402   1_556  A
C1347      F1354   1.343       .  S
C1348      C1349   1.405       .  A
C1349      C1350   1.399   1_556  A
C1349      F1356   1.358       .  S
C1350      C1351   1.410       .  A
C1350      F1355   1.358       .  S
C1351      C1352   1.405       .  A
C1352      F1353   1.358       .  S
C1357      C1358   1.406       .  A
C1357      C1362   1.399       .  A
C1357      F1364   1.358       .  S
C1358      C1359   1.403       .  A
C1359      C1360   1.403       .  A
C1359      F1366   1.358       .  S
C1360      C1361   1.415       .  A
C1360      F1365   1.358       .  S
C1361      C1362   1.408       .  A
C1362      F1363   1.355       .  S
C1367      C1368   1.407       .  A
C1367      C1372   1.405       .  A
C1367      F1374   1.357       .  S
C1368      C1369   1.415       .  A
C1369      C1370   1.395       .  A
C1369      F1376   1.357       .  S
C1370      C1371   1.406       .  A
C1370      F1375   1.358       .  S
C1371      C1372   1.414       .  A
C1372      F1373   1.358       .  S
C1377      C1378   1.407       .  A
C1377      C1382   1.415       .  A
C1377      F1384   1.358       .  S
C1378      C1379   1.415       .  A
C1379      C1380   1.423       .  A
C1379      F1386   1.357       .  S
C1380      C1381   1.414       .  A
C1380      F1385   1.357       .  S
C1381      C1382   1.418       .  A
C1382      F1383   1.358       .  S
C1387      C1388   1.404       .  A
C1387      C1392   1.406       .  A
C1387      F1394   1.358       .  S
C1388      C1389   1.414       .  A
C1389      C1390   1.410       .  A
C1389      F1396   1.358       .  S
C1390      C1391   1.405       .  A
C1390      F1395   1.358       .  S
C1391      C1392   1.412       .  A
C1392      F1393   1.355       .  S
C1397      C1398   1.407       .  A
C1397      C1402   1.395       .  A
C1397      F1404   1.358       .  S
C1398      C1399   1.416       .  A
C1399      C1400   1.407       .  A
C1399      F1406   1.358       .  S
C1400      C1401   1.404       .  A
C1400      F1405   1.357       .  S
C1401      C1402   1.410       .  A
C1402      F1403   1.359       .  S
C1407      C1408   1.407       .  A
C1407      C1412   1.398       .  A
C1407      F1414   1.358       .  S
C1408      C1409   1.414       .  A
C1409      C1410   1.406       .  A
C1409      F1416   1.358       .  S
C1410      C1411   1.409       .  A
C1410      F1415   1.357       .  S
C1411      C1412   1.414       .  A
C1412      F1413   1.358       .  S
C1417      C1422   1.390       .  A
C1417      F1424   1.358       .  S
C1418      C1419   1.407       .  A
C1419      F1426   1.358       .  S
C1420      C1421   1.403       .  A
C1420      F1977   1.353       .  S
C1421      C1422   1.400       .  A
C1422      F1423   1.350       .  S
F1425      C1972   1.353       .  S
C1427      C1980   1.401       .  A
C1427      C1432   1.375       .  A
C1427      F1434   1.358       .  S
C1428      C1769   1.479       .  S
C1428      C1979   1.401       .  A
C1428      C1429   1.411   1_565  A
C1429      C1430   1.417       .  A
C1429      F1436   1.357       .  S
C1430      C1431   1.411       .  A
C1430      F1435   1.356       .  S
C1431      C1984   1.401       .  A
C1432      C1983   1.401       .  A
C1437      C1438   1.420       .  A
C1437      C1442   1.399       .  A
C1437      F1444   1.358       .  S
C1438      C1439   1.410       .  A
C1439      C1440   1.417       .  A
C1439      F1446   1.357       .  S
C1440      C1441   1.418       .  A
C1440      F1445   1.357       .  S
C1441      C1442   1.405       .  A
C1442      F1443   1.358       .  S
C1447      C1448   1.411       .  A
C1447      C1452   1.411       .  A
C1447      F2006   1.357   1_545  S
C1448      C1772   1.500   1_545  S
C1448      C1449   1.418       .  A
C1449      C1450   1.396       .  A
C1449      F1456   1.359       .  S
C1450      C1451   1.400       .  A
C1450      F1455   1.359       .  S
C1451      C1452   1.410       .  A
C1452      F1453   1.357       .  S
F1454      C1999   1.357       .  S
C1457      C1458   1.397       .  A
C1457      C1462   1.389       .  A
C1457      F1464   1.357       .  S
C1458      C1459   1.406       .  A
C1459      C1460   1.398       .  A
C1459      F1466   1.358       .  S
C1460      C1461   1.402       .  A
C1460      F1465   1.358       .  S
C1461      C1462   1.406       .  A
C1462      F1463   1.359       .  S
C1467      C1468   1.399       .  A
C1467      C1472   1.386       .  A
C1467      F1474   1.359       .  S
C1468      C1469   1.405       .  A
C1469      C1470   1.402       .  A
C1469      F1476   1.358       .  S
C1470      C1471   1.407       .  A
C1470      F1475   1.357       .  S
C1471      C1472   1.410       .  A
C1472      F1473   1.359       .  S
C1477      C1478   1.400       .  A
C1477      F1484   1.353       .  S
C1479      C1480   1.402       .  A
C1479      F1486   1.356       .  S
C1480      C1481   1.406       .  A
C1480      F1485   1.358       .  S
C1481      C1482   1.409       .  A
C1482      F1483   1.354       .  S
C1487      C1488   1.406       .  A
C1487      C1492   1.394       .  A
C1487      F1494   1.359   1_556  S
C1488      C1740   1.468   1_545  S
C1488      C2041   1.400       .  A
C1489      C2040   1.400       .  A
C1489      C2042   1.401       .  A
C1489      F1496   1.357       .  S
C1490      C2041   1.401       .  A
C1490      C1491   1.407       .  A
C1490      F2047   1.354       .  S
C1491      C1492   1.402       .  A
F1495      C2042   1.354       .  S
C1497      C1498   1.407       .  A
C1497      C1502   1.408       .  A
C1497      F1504   1.357   1_554  S
C1498      C1499   1.419       .  A
C1499      C1500   1.405       .  A
C1499      F1506   1.358       .  S
C1500      C1501   1.404       .  A
C1500      F1505   1.358       .  S
C1501      C1502   1.416       .  A
C1502      F1503   1.358   1_554  S
C1507      C1508   1.408   1_545  A
C1507      C1512   1.404       .  A
C1507      F1514   1.349       .  S
C1508      C1743   1.502       .  S
C1508      C1509   1.408   1_565  A
C1509      C1510   1.415       .  A
C1509      F2068   1.357   1_545  S
C1510      C1511   1.415       .  A
C1510      F1515   1.357       .  S
C1511      C1512   1.408       .  A
C1512      F1513   1.358       .  S
F1516      C2061   1.357       .  S
C1517      C1518   1.414       .  A
C1517      C1522   1.388   1_556  A
C1517      F1524   1.355       .  S
C1518      C1519   1.411   1_556  A
C1519      C1520   1.407       .  A
C1519      F1526   1.358       .  S
C1520      C1521   1.407       .  A
C1520      F1525   1.356       .  S
C1521      C1522   1.399       .  A
C1522      F1523   1.359   1_554  S
C1527      C1528   1.415       .  A
C1527      C1532   1.412       .  A
C1527      F1534   1.357       .  S
C1528      C1529   1.398       .  A
C1529      C1530   1.373       .  A
C1529      F1536   1.360       .  S
C1530      C1531   1.410       .  A
C1530      F1535   1.353       .  S
C1531      C1532   1.404       .  A
C1532      F1533   1.357       .  S
C1537      C1538   1.413       .  A
C1537      C1542   1.413       .  A
C1537      F1544   1.357       .  S
C1538      C1539   1.403       .  A
C1539      C1540   1.402       .  A
C1539      F1546   1.358   1_556  S
C1540      C1541   1.419       .  A
C1540      F1545   1.358   1_556  S
C1541      C1542   1.412       .  A
C1542      F1543   1.357       .  S
C1547      C1548   1.408       .  A
C1547      C1552   1.384       .  A
C1547      F1554   1.358       .  S
C1548      C1549   1.412       .  A
C1549      F1556   1.357       .  S
C1550      F1555   1.357   1_455  S
C1551      C1552   1.400       .  A
C1552      F1553   1.356   1_556  S
C1557      C1558   1.405       .  A
C1557      C1562   1.407       .  A
C1557      F1564   1.357       .  S
C1558      C1559   1.400       .  A
C1559      C1560   1.383       .  A
C1559      F1566   1.357       .  S
C1560      C1561   1.405       .  A
C1560      F1565   1.359       .  S
C1561      C1562   1.409       .  A
C1562      F1563   1.357       .  S
C1567      C1568   1.416       .  A
C1567      C1572   1.380       .  A
C1567      F1574   1.359       .  S
C1568      C1569   1.402       .  A
C1569      C1570   1.403       .  A
C1569      F1576   1.357       .  S
C1570      C1571   1.408       .  A
C1570      F1575   1.346       .  S
C1571      C1572   1.388       .  A
C1572      F1573   1.349       .  S
C1577      C1578   1.410       .  A
C1577      C1582   1.396       .  A
C1577      F1584   1.358       .  S
C1578      C1579   1.404       .  A
C1579      C1580   1.368       .  A
C1579      F1586   1.360       .  S
C1580      C1581   1.393       .  A
C1580      F1585   1.351       .  S
C1581      C1582   1.400       .  A
C1582      F1583   1.358       .  S
C1587      C1588   1.404       .  A
C1587      C1592   1.379       .  A
C1587      F1594   1.359       .  S
C1588      C1589   1.404       .  A
C1589      C1590   1.394       .  A
C1589      F1596   1.358       .  S
C1590      C1591   1.407       .  A
C1590      F1595   1.358       .  S
C1591      C1592   1.405       .  A
C1592      F1593   1.359       .  S
C1597      C1598   1.397       .  A
C1597      C1602   1.400       .  A
C1597      F1604   1.358       .  S
C1598      C1599   1.414       .  A
C1599      C1600   1.414       .  A
C1599      F1606   1.351       .  S
C1600      C1601   1.407       .  A
C1600      F1605   1.357       .  S
C1601      C1602   1.414       .  A
C1602      F1603   1.344       .  S
C1607      C1608   1.415       .  A
C1607      C1612   1.395       .  A
C1607      F1614   1.352       .  S
C1608      C1609   1.404       .  A
C1609      C1610   1.404       .  A
C1609      F1616   1.357       .  S
C1610      C1611   1.409       .  A
C1610      F1615   1.357       .  S
C1611      C1612   1.393       .  A
C1612      F1613   1.358       .  S
C1617      C1618   1.404       .  A
C1617      C1622   1.397       .  A
C1617      F1624   1.358       .  S
C1618      C1619   1.409       .  A
C1619      C1620   1.389       .  A
C1619      F1626   1.359       .  S
C1620      C1621   1.398       .  A
C1620      F1625   1.358       .  S
C1621      C1622   1.405       .  A
C1622      F1623   1.358       .  S
C1627      C1628   1.410       .  A
C1627      C1632   1.407       .  A
C1627      F1634   1.358       .  S
C1628      C1629   1.414       .  A
C1629      C1630   1.395       .  A
C1629      F1636   1.358       .  S
C1630      C1631   1.401       .  A
C1630      F1635   1.355       .  S
C1631      C1632   1.409       .  A
C1637      C1638   1.408       .  A
C1637      C1642   1.394       .  A
C1637      F1644   1.358       .  S
C1638      C1639   1.392       .  A
C1639      C1640   1.388       .  A
C1639      F1646   1.359       .  S
C1640      C1641   1.418       .  A
C1640      F1645   1.358       .  S
C1641      C1642   1.401       .  A
C1642      F1643   1.358       .  S
C1647      C1648   1.410       .  A
C1647      C1652   1.394       .  A
C1647      F1654   1.358       .  S
C1648      C1649   1.408       .  A
C1649      C1650   1.388       .  A
C1649      F1656   1.354       .  S
C1650      C1651   1.401       .  A
C1650      F1655   1.359       .  S
C1651      C1652   1.402       .  A
C1652      F2205   1.357       .  S
F1653      C2204   1.357   1_545  S
O1657      C1665   1.264       .  A
O1657     Co1677   2.007       .  S
O1658      C1666   1.254       .  A
O1658     Co1678   1.977       .  S
O1659      C1667   1.240       .  A
O1659     Co1679   1.948       .  S
O1660      C1668   1.264       .  A
O1660     Co1680   1.973       .  S
O1661      C1667   1.240       .  A
O1661     Co1678   1.971       .  S
O1662      C1668   1.277       .  A
O1662     Co1677   2.029       .  S
O1663      C1666   1.265       .  A
O1663     Co1680   1.981       .  S
O1664      C1665   1.253       .  A
O1664     Co1679   1.949       .  S
C1665      C2200   1.473       .  S
C1666      C2193   1.468       .  S
C1667      C2140   1.456       .  S
C1668      C2180   1.491       .  S
O1669      C1682   1.250       .  A
O1669     Co1677   1.936       .  S
O1670      C1683   1.267       .  A
O1670     Co1678   2.009       .  S
O1671      C1684   1.248       .  A
O1671     Co1679   1.981       .  S
O1672      C1685   1.248       .  A
O1672     Co1680   1.973       .  S
O1673      C1685   1.265       .  A
O1673     Co1678   2.037       .  S
O1674      C1684   1.252       .  A
O1674     Co1677   1.977       .  S
O1675      C1682   1.248       .  A
O1675     Co1680   1.992       .  S
O1676      C1683   1.257       .  A
O1676     Co1679   1.967       .  S
Co1677     O1681   2.092       .  S
Co1678     O1681   2.174       .  S
Co1679     O1681   2.124       .  S
Co1680     O1681   2.074       .  S
C1682      C2130   1.453       .  S
C1683      C2163   1.468       .  S
C1684      C2173   1.455       .  S
C1685      C2153   1.508       .  S
O1686      C1694   1.292   1_556  A
O1686     Co1706   1.939       .  S
O1687      C1695   1.255       .  A
O1687     Co1707   1.966       .  S
O1688      C1696   1.261       .  A
O1688     Co1708   1.987       .  S
O1689      C1697   1.282       .  A
O1689     Co1709   2.040       .  S
O1690      C1696   1.261       .  A
O1690     Co1707   1.980       .  S
O1691      C1697   1.274       .  A
O1691     Co1706   1.986       .  S
O1692      C1695   1.258       .  A
O1692     Co1709   1.999       .  S
O1693      C1694   1.295   1_556  A
O1693     Co1708   1.980       .  S
C1694      C2143   1.462       .  S
C1695      C2080   1.472       .  S
C1696      C2070   1.489       .  S
C1697      C2090   1.497       .  S
O1698      C1711   1.266       .  A
O1698     Co1706   2.033       .  S
O1699      C1712   1.261       .  A
O1699     Co1707   1.964       .  S
O1700      C1713   1.238       .  A
O1700     Co1708   1.978       .  S
O1701      C1714   1.259       .  A
O1701     Co1709   1.943       .  S
O1702      C1714   1.273       .  A
O1702     Co1707   2.004       .  S
O1703      C1713   1.256       .  A
O1703     Co1706   2.039       .  S
O1704      C1711   1.243       .  A
O1704     Co1709   1.920       .  S
O1705      C1712   1.268       .  A
O1705     Co1708   2.007       .  S
Co1706     O1710   2.037       .  S
Co1707     O1710   1.997       .  S
Co1708     O1710   2.009       .  S
Co1709     O1710   2.012       .  S
C1711      C2120   1.474       .  S
C1712      C2110   1.461       .  S
C1713      C2100   1.484       .  S
C1714      C2133   1.435       .  S
O1715      C1723   1.250       .  A
O1715     Co1735   1.976       .  S
O1716      C1724   1.268   1_554  A
O1716     Co1736   1.997       .  S
O1717      C1725   1.263       .  A
O1717     Co1737   1.948       .  S
O1718      C1726   1.278       .  A
O1718     Co1738   1.885       .  S
O1719      C1725   1.293       .  A
O1719     Co1736   2.081       .  S
O1720      C1726   1.294       .  A
O1720     Co1735   2.083       .  S
O1721      C1724   1.274       .  A
O1721     Co1738   2.014       .  S
O1722      C1723   1.254       .  A
O1722     Co1737   2.004   1_556  S
C1724      C2093   1.509       .  S
C1725      C2053   1.497       .  S
C1726      C2010   1.455       .  S
O1727      C1740   1.249       .  A
O1727     Co1735   1.866       .  S
O1728      C1741   1.256       .  A
O1728     Co1736   1.952       .  S
O1729      C1742   1.287       .  A
O1729     Co1737   2.060       .  S
O1730      C1743   1.276   1_556  A
O1730     Co1738   2.026       .  S
O1731      C1743   1.271       .  A
O1731     Co1736   2.010       .  S
O1732      C1742   1.266       .  A
O1732     Co1735   1.955   1_554  S
O1733      C1740   1.294       .  A
O1733     Co1738   2.130       .  S
O1734      C1741   1.262       .  A
O1734     Co1737   2.006       .  S
Co1735     O1739   1.957   1_556  S
Co1736     O1739   2.018       .  S
Co1737     O1739   2.056       .  S
Co1738     O1739   2.021   1_556  S
C1741      C2020   1.462       .  S
C1742      C2030   1.475       .  S
O1744      C1752   1.289       .  A
O1744     Co1764   2.044       .  S
O1745      C1753   1.253       .  A
O1745     Co1765   1.942       .  S
O1746      C1754   1.259       .  A
O1746     Co1766   1.995       .  S
O1747      C1755   1.294       .  A
O1747     Co1767   2.041       .  S
O1748      C1754   1.276       .  A
O1748     Co1765   2.038       .  S
O1749      C1755   1.281       .  A
O1749     Co1764   1.911       .  S
O1750      C1753   1.263       .  A
O1750     Co1767   1.993       .  S
O1751      C1752   1.281       .  A
O1751     Co1766   1.922       .  S
C1753      C2170   1.463       .  S
C1754      C1993   1.507       .  S
C1755      C2023   1.471       .  S
O1756      C1769   1.281       .  A
O1756     Co1764   2.048       .  S
O1757      C1770   1.265       .  A
O1757     Co1765   1.947       .  S
O1758      C1771   1.250       .  A
O1758     Co1766   1.946       .  S
O1759      C1772   1.257       .  A
O1759     Co1767   1.958       .  S
O1760      C1772   1.280       .  A
O1760     Co1765   2.050       .  S
O1761      C1771   1.265       .  A
O1761     Co1764   2.007       .  S
O1762      C1769   1.268       .  A
O1762     Co1767   1.958       .  S
O1763      C1770   1.277       .  A
O1763     Co1766   2.013       .  S
Co1764     O1768   2.079       .  S
Co1765     O1768   2.012       .  S
Co1766     O1768   1.916       .  S
Co1767     O1768   2.003       .  S
C1770      C2013   1.459       .  S
C1771      C1970   1.466       .  S
O1773      C1781   1.269       .  A
O1773     Co1793   1.957       .  S
O1774      C1782   1.276       .  A
O1774     Co1794   2.021       .  S
O1775      C1783   1.289   1_554  A
O1775     Co1795   2.091       .  S
O1776      C1784   1.273       .  A
O1776     Co1796   2.053       .  S
O1777      C1783   1.266   1_554  A
O1777     Co1794   1.982       .  S
O1778      C1784   1.248       .  A
O1778     Co1793   1.960       .  S
O1779      C1782   1.267       .  A
O1779     Co1796   1.987       .  S
O1780      C1781   1.279       .  A
O1780     Co1795   2.030       .  S
C1781      C2073   1.469       .  S
C1782      C2063   1.505       .  S
C1783      C1933   1.525       .  S
C1784      C1963   1.495       .  S
O1785      C1798   1.273       .  A
O1785     Co1793   2.045       .  S
O1786      C1799   1.269       .  A
O1786     Co1794   2.071       .  S
O1787      C1800   1.276       .  A
O1787     Co1795   1.966       .  S
O1788      C1801   1.266       .  A
O1788     Co1796   1.988       .  S
O1789      C1801   1.266       .  A
O1789     Co1794   1.978       .  S
O1790      C1800   1.278       .  A
O1790     Co1793   2.032       .  S
O1791      C1798   1.257       .  A
O1791     Co1796   1.983       .  S
O1792      C1799   1.237       .  A
O1792     Co1795   1.963       .  S
Co1793     O1797   2.046       .  S
Co1794     O1797   2.097       .  S
Co1795     O1797   2.033       .  S
Co1796     O1797   2.084       .  S
C1798      C1940   1.495       .  S
C1799      C2050   1.503       .  S
C1800      C2160   1.487       .  S
C1801      C1950   1.492       .  S
O1802      C1810   1.273       .  A
O1802     Co1822   1.970       .  S
O1803      C1811   1.272       .  A
O1803     Co1823   1.996       .  S
O1804      C1812   1.274       .  A
O1804     Co1824   2.053       .  S
O1805      C1813   1.279       .  A
O1805     Co1825   2.059       .  S
O1806      C1812   1.255       .  A
O1806     Co1823   1.973       .  S
O1807      C1813   1.252       .  A
O1807     Co1822   1.944       .  S
O1808      C1811   1.266       .  A
O1808     Co1825   1.984       .  S
O1809      C1810   1.275       .  A
O1809     Co1824   2.049       .  S
C1810      C2150   1.492       .  S
C1811      C2003   1.484       .  S
C1812      C1943   1.494       .  S
C1813      C1920   1.492       .  S
O1814      C1827   1.280       .  A
O1814     Co1822   2.078       .  S
O1815      C1828   1.286       .  A
O1815     Co1823   2.098       .  S
O1816      C1829   1.274       .  A
O1816     Co1824   1.976       .  S
O1817      C1830   1.267       .  A
O1817     Co1825   1.980       .  S
O1818      C1830   1.266       .  A
O1818     Co1823   1.983       .  S
O1819      C1829   1.271       .  A
O1819     Co1822   2.018       .  S
O1820      C1827   1.259       .  A
O1820     Co1825   1.992       .  S
O1821      C1828   1.248       .  A
O1821     Co1824   1.946       .  S
Co1822     O1826   2.021       .  S
Co1823     O1826   2.064       .  S
Co1824     O1826   2.047       .  S
Co1825     O1826   2.071       .  S
C1827      C1930   1.515       .  S
C1828      C1990   1.513       .  S
C1829      C2083   1.476       .  S
C1830      C1910   1.477       .  S
O1831      C1839   1.281       .  A
O1832      C1840   1.264       .  A
O1832     Co1852   2.005       .  S
O1833      C1841   1.267       .  A
O1833     Co1853   1.961       .  S
O1834      C1842   1.252       .  A
O1834     Co1854   1.972       .  S
O1835      C1841   1.287       .  A
O1835     Co1852   2.052       .  S
O1836      C1842   1.267       .  A
O1836     Co1851   2.034       .  S
O1837      C1840   1.246       .  A
O1837     Co1854   1.931       .  S
O1838     Co1853   1.904       .  S
C1839      C2203   1.456   1_545  S
C1840      C2190   1.454       .  S
C1841      C1960   1.493       .  S
C1842      C1893   1.478       .  S
O1843      C1856   1.260       .  A
O1843     Co1851   1.978       .  S
O1844      C1857   1.249       .  A
O1844     Co1852   1.966       .  S
O1845      C1858   1.296   1_545  A
O1846      C1859   1.280       .  A
O1846     Co1854   2.044       .  S
O1847      C1859   1.259       .  A
O1847     Co1852   1.940       .  S
O1848      C1858   1.270       .  A
O1849      C1856   1.271       .  A
O1849     Co1854   2.032       .  S
O1850      C1857   1.254       .  A
O1850     Co1853   2.011       .  S
Co1851     O1855   2.005       .  S
Co1852     O1855   2.030       .  S
Co1853     O1855   2.024       .  S
Co1854     O1855   2.046       .  S
C1857      C1903   1.484       .  S
C1858      C2033   1.483       .  S
O1860      C1868   1.270       .  A
O1861      C1869   1.267       .  A
O1861     Co1881   1.962       .  S
O1862      C1870   1.263       .  A
O1862     Co1882   1.954       .  S
O1863      C1871   1.232       .  A
O1863     Co1883   1.970       .  S
O1864      C1870   1.281       .  A
O1864     Co1881   2.034       .  S
O1865      C1871   1.252       .  A
O1865     Co1880   2.053       .  S
O1866      C1869   1.269       .  A
O1866     Co1883   2.000       .  S
O1867      C1868   1.253       .  A
C1868      C2123   1.469   1_545  S
C1869      C2113   1.471       .  S
C1870      C1923   1.490       .  S
C1871      C1900   1.482       .  S
O1872     Co1880   1.958       .  S
O1873      C1886   1.259       .  A
O1873     Co1881   1.974       .  S
O1874      C1887   1.279       .  A
O1875      C1888   1.260       .  A
O1875     Co1883   1.975       .  S
O1876      C1888   1.265       .  A
O1876     Co1881   2.007       .  S
O1877      C1887   1.266       .  A
O1878     Co1883   2.005       .  S
O1879      C1886   1.269       .  A
O1879     Co1882   2.028       .  S
Co1880     O1884   2.059       .  S
Co1881     O1884   2.036       .  S
Co1882     O1884   2.043       .  S
Co1883     O1884   2.036       .  S
C1885      C2043   1.466   1_455  S
C1886      C1890   1.494       .  S
C1887      C1973   1.475   1_545  S
C1889      C1890   1.411       .  A
C1889      C1894   1.408       .  A
C1889      F1896   1.358       .  S
C1890      C1891   1.409       .  A
C1891      C1892   1.398       .  A
C1891      F1898   1.352       .  S
C1892      C1893   1.401       .  A
C1892      F1897   1.358       .  S
C1893      C1894   1.408       .  A
C1894      F1895   1.357       .  S
C1899      C1900   1.401       .  A
C1899      C1904   1.402   1_556  A
C1899      F1906   1.343       .  S
C1900      C1901   1.405       .  A
C1901      C1902   1.399   1_556  A
C1901      F1908   1.358       .  S
C1902      C1903   1.410       .  A
C1902      F1907   1.358       .  S
C1903      C1904   1.405       .  A
C1904      F1905   1.358       .  S
C1909      C1910   1.406       .  A
C1909      C1914   1.399       .  A
C1909      F1916   1.358       .  S
C1910      C1911   1.403       .  A
C1911      C1912   1.403       .  A
C1911      F1918   1.358       .  S
C1912      C1913   1.415       .  A
C1912      F1917   1.358       .  S
C1913      C1914   1.408       .  A
C1914      F1915   1.355       .  S
C1919      C1920   1.407       .  A
C1919      C1924   1.405       .  A
C1919      F1926   1.357       .  S
C1920      C1921   1.415       .  A
C1921      C1922   1.395       .  A
C1921      F1928   1.357       .  S
C1922      C1923   1.406       .  A
C1922      F1927   1.358       .  S
C1923      C1924   1.414       .  A
C1924      F1925   1.358       .  S
C1929      C1930   1.407       .  A
C1929      C1934   1.415       .  A
C1929      F1936   1.358       .  S
C1930      C1931   1.415       .  A
C1931      C1932   1.423       .  A
C1931      F1938   1.357       .  S
C1932      C1933   1.414       .  A
C1932      F1937   1.357       .  S
C1933      C1934   1.418       .  A
C1934      F1935   1.358       .  S
C1939      C1940   1.404       .  A
C1939      C1944   1.406       .  A
C1939      F1946   1.358       .  S
C1940      C1941   1.414       .  A
C1941      C1942   1.410       .  A
C1941      F1948   1.358       .  S
C1942      C1943   1.405       .  A
C1942      F1947   1.358       .  S
C1943      C1944   1.412       .  A
C1944      F1945   1.355       .  S
C1949      C1950   1.407       .  A
C1949      C1954   1.395       .  A
C1949      F1956   1.358       .  S
C1950      C1951   1.416       .  A
C1951      C1952   1.407       .  A
C1951      F1958   1.358       .  S
C1952      C1953   1.404       .  A
C1952      F1957   1.357       .  S
C1953      C1954   1.410       .  A
C1954      F1955   1.359       .  S
C1959      C1960   1.407       .  A
C1959      C1964   1.398       .  A
C1959      F1966   1.358       .  S
C1960      C1961   1.414       .  A
C1961      C1962   1.406       .  A
C1961      F1968   1.358       .  S
C1962      C1963   1.409       .  A
C1962      F1967   1.357       .  S
C1963      C1964   1.414       .  A
C1964      F1965   1.358       .  S
C1969      C1974   1.390       .  A
C1969      F1976   1.358       .  S
C1970      C1971   1.407       .  A
C1971      F1978   1.358       .  S
C1972      C1973   1.403   1_545  A
C1973      C1974   1.400       .  A
C1974      F1975   1.350       .  S
C1979      C1984   1.375   1_565  A
C1979      F1986   1.358       .  S
C1980      C1981   1.411       .  A
C1981      C1982   1.417       .  A
C1981      F1988   1.357       .  S
C1982      C1983   1.411       .  A
C1982      F1987   1.356       .  S
C1989      C1990   1.420       .  A
C1989      C1994   1.399       .  A
C1989      F1996   1.358       .  S
C1990      C1991   1.410       .  A
C1991      C1992   1.417       .  A
C1991      F1998   1.357       .  S
C1992      C1993   1.418       .  A
C1992      F1997   1.357       .  S
C1993      C1994   1.405       .  A
C1994      F1995   1.358       .  S
C1999      C2000   1.411       .  A
C1999      C2004   1.411       .  A
C2000      C2001   1.418       .  A
C2001      C2002   1.396       .  A
C2001      F2008   1.359       .  S
C2002      C2003   1.400       .  A
C2002      F2007   1.359       .  S
C2003      C2004   1.410       .  A
C2004      F2005   1.357       .  S
C2009      C2010   1.397       .  A
C2009      C2014   1.389       .  A
C2009      F2016   1.357       .  S
C2010      C2011   1.406       .  A
C2011      C2012   1.398       .  A
C2011      F2018   1.358       .  S
C2012      C2013   1.402       .  A
C2012      F2017   1.358       .  S
C2013      C2014   1.406       .  A
C2014      F2015   1.359       .  S
C2019      C2020   1.399       .  A
C2019      C2024   1.386       .  A
C2019      F2026   1.359       .  S
C2020      C2021   1.405       .  A
C2021      C2022   1.402       .  A
C2021      F2028   1.358       .  S
C2022      C2023   1.407       .  A
C2022      F2027   1.357       .  S
C2023      C2024   1.410       .  A
C2024      F2025   1.359       .  S
C2029      C2030   1.400       .  A
C2029      F2036   1.353       .  S
C2031      C2032   1.402       .  A
C2031      F2038   1.356       .  S
C2032      C2033   1.406       .  A
C2032      F2037   1.358       .  S
C2033      C2034   1.409       .  A
C2034      F2035   1.354       .  S
C2039      C2040   1.406       .  A
C2039      C2044   1.394       .  A
C2039      F2046   1.359   1_556  S
C2041      F2048   1.357       .  S
C2042      C2043   1.407       .  A
C2043      C2044   1.402       .  A
C2049      C2050   1.407       .  A
C2049      C2054   1.408       .  A
C2049      F2056   1.357   1_554  S
C2050      C2051   1.419       .  A
C2051      C2052   1.405       .  A
C2051      F2058   1.358       .  S
C2052      C2053   1.404       .  A
C2052      F2057   1.358       .  S
C2053      C2054   1.416       .  A
C2054      F2055   1.358   1_554  S
C2059      C2060   1.408       .  A
C2059      C2064   1.404       .  A
C2059      F2066   1.349       .  S
C2060      C2061   1.408       .  A
C2061      C2062   1.415       .  A
C2062      C2063   1.415       .  A
C2062      F2067   1.357       .  S
C2063      C2064   1.408       .  A
C2064      F2065   1.358       .  S
C2069      C2070   1.414       .  A
C2069      C2074   1.388   1_556  A
C2069      F2076   1.355       .  S
C2070      C2071   1.411   1_556  A
C2071      C2072   1.407       .  A
C2071      F2078   1.358       .  S
C2072      C2073   1.407       .  A
C2072      F2077   1.356       .  S
C2073      C2074   1.399       .  A
C2074      F2075   1.359   1_554  S
C2079      C2080   1.415       .  A
C2079      C2084   1.412       .  A
C2079      F2086   1.357       .  S
C2080      C2081   1.398       .  A
C2081      C2082   1.373       .  A
C2081      F2088   1.360       .  S
C2082      C2083   1.410       .  A
C2082      F2087   1.353       .  S
C2083      C2084   1.404       .  A
C2084      F2085   1.357       .  S
C2089      C2090   1.413       .  A
C2089      C2094   1.413       .  A
C2089      F2096   1.357       .  S
C2090      C2091   1.403       .  A
C2091      C2092   1.402       .  A
C2091      F2098   1.358   1_556  S
C2092      C2093   1.419       .  A
C2092      F2097   1.358   1_556  S
C2093      C2094   1.412       .  A
C2094      F2095   1.357       .  S
C2099      C2100   1.408       .  A
C2099      C2104   1.384       .  A
C2099      F2106   1.358       .  S
C2100      C2101   1.412       .  A
C2101      F2108   1.357       .  S
C2102      F2107   1.357   1_455  S
C2103      C2104   1.400       .  A
C2104      F2105   1.356   1_556  S
C2109      C2110   1.405       .  A
C2109      C2114   1.407       .  A
C2109      F2116   1.357       .  S
C2110      C2111   1.400       .  A
C2111      C2112   1.383       .  A
C2111      F2118   1.357       .  S
C2112      C2113   1.405       .  A
C2112      F2117   1.359       .  S
C2113      C2114   1.409       .  A
C2114      F2115   1.357       .  S
C2119      C2120   1.416       .  A
C2119      C2124   1.380       .  A
C2119      F2126   1.359       .  S
C2120      C2121   1.402       .  A
C2121      C2122   1.403       .  A
C2121      F2128   1.357       .  S
C2122      C2123   1.408       .  A
C2122      F2127   1.346       .  S
C2123      C2124   1.388       .  A
C2124      F2125   1.349       .  S
C2129      C2130   1.410       .  A
C2129      C2134   1.396       .  A
C2129      F2136   1.358       .  S
C2130      C2131   1.404       .  A
C2131      C2132   1.368       .  A
C2131      F2138   1.360       .  S
C2132      C2133   1.393       .  A
C2132      F2137   1.351       .  S
C2133      C2134   1.400       .  A
C2134      F2135   1.358       .  S
C2139      C2140   1.404       .  A
C2139      C2144   1.379       .  A
C2139      F2146   1.359       .  S
C2140      C2141   1.404       .  A
C2141      C2142   1.394       .  A
C2141      F2148   1.358       .  S
C2142      C2143   1.407       .  A
C2142      F2147   1.358       .  S
C2143      C2144   1.405       .  A
C2144      F2145   1.359       .  S
C2149      C2150   1.397       .  A
C2149      C2154   1.400       .  A
C2149      F2156   1.358       .  S
C2150      C2151   1.414       .  A
C2151      C2152   1.414       .  A
C2151      F2158   1.351       .  S
C2152      C2153   1.407       .  A
C2152      F2157   1.357       .  S
C2153      C2154   1.414       .  A
C2154      F2155   1.344       .  S
C2159      C2160   1.415       .  A
C2159      C2164   1.395       .  A
C2159      F2166   1.352       .  S
C2160      C2161   1.404       .  A
C2161      C2162   1.404       .  A
C2161      F2168   1.357       .  S
C2162      C2163   1.409       .  A
C2162      F2167   1.357       .  S
C2163      C2164   1.393       .  A
C2164      F2165   1.358       .  S
C2169      C2170   1.404       .  A
C2169      C2174   1.397       .  A
C2169      F2176   1.358       .  S
C2170      C2171   1.409       .  A
C2171      C2172   1.389       .  A
C2171      F2178   1.359       .  S
C2172      C2173   1.398       .  A
C2172      F2177   1.358       .  S
C2173      C2174   1.405       .  A
C2174      F2175   1.358       .  S
C2179      C2180   1.410       .  A
C2179      C2184   1.407       .  A
C2179      F2186   1.358       .  S
C2180      C2181   1.414       .  A
C2181      C2182   1.395       .  A
C2181      F2188   1.358       .  S
C2182      C2183   1.401       .  A
C2182      F2187   1.355       .  S
C2183      C2184   1.409       .  A
C2189      C2190   1.408       .  A
C2189      C2194   1.394       .  A
C2189      F2196   1.358       .  S
C2190      C2191   1.392       .  A
C2191      C2192   1.388       .  A
C2191      F2198   1.359       .  S
C2192      C2193   1.418       .  A
C2192      F2197   1.358       .  S
C2193      C2194   1.401       .  A
C2194      F2195   1.358       .  S
C2199      C2200   1.410       .  A
C2199      C2204   1.394       .  A
C2199      F2206   1.358       .  S
C2200      C2201   1.408       .  A
C2201      C2202   1.388       .  A
C2201      F2208   1.354       .  S
C2202      C2203   1.401       .  A
C2202      F2207   1.359       .  S
C2203      C2204   1.402       .  A
