geometry optimzed in LAMMPS
_audit_creation_date              2020-11-30 
_audit_creation_method            'lammps2cif' 
_symmetry_space_group_name_H-M    'P1' 
_symmetry_Int_Tables_number       1 
_symmetry_cell_setting            triclinic 
loop_ 
_symmetry_equiv_pos_as_xyz 
  x,y,z 
_cell_length_a                    38.81905639 
_cell_length_b                    39.08998138693234 
_cell_length_c                    37.294763210432826 
_cell_angle_alpha                 90.14280633004051 
_cell_angle_beta                  90.31808021699298 
_cell_angle_gamma                 90.05339917199676 
loop_ 
_atom_site_label 
_atom_site_type_symbol 
_atom_site_fract_x 
_atom_site_fract_y 
_atom_site_fract_z 
_atom_site_charge 
C1          C  0.34705581  0.32645278  0.46583707     0.04400
C2          C  0.33219144  0.31475838  0.49777968    -0.11700
C3          C  0.34022077  0.33033000  0.03115733     0.01900
C4          C  0.36533014  0.35624034  0.03222318    -0.10200
C5          C  0.38061818  0.36777969  0.00039446     0.04400
C6          C  0.37150025  0.35289719  0.46743198    -0.09700
H7          H  0.31329864  0.29435592  0.49670642     0.10000
H8          H  0.37263042  0.36779926  0.05758853     0.07600
H9          H  0.38339106  0.36206819  0.44305273     0.07400
C10         C  0.10015912  0.33747865  0.46899639     0.04600
C11         C  0.07311475  0.36143169  0.46741972    -0.11700
C12         C  0.05870091  0.37586620  0.99891018     0.01900
C13         C  0.07048877  0.36425046  0.03244639    -0.10200
C14         C  0.09691990  0.33994791  0.03447068     0.04400
C15         C  0.11266146  0.32745603  0.50272165    -0.09700
H16         H  0.06285379  0.36946402  0.44172672     0.10000
H17         H  0.05839202  0.37341686  0.05675763     0.07600
H18         H  0.13421027  0.30990984  0.50437346     0.07400
C19         C  0.33190427  0.08115305  0.46324725     0.04400
C20         C  0.31802817  0.09435327  0.49499266    -0.11700
C21         C  0.33045423  0.08336094  0.02831051     0.01900
C22         C  0.35696738  0.05886866  0.03022628    -0.10200
C23         C  0.37227161  0.04628887  0.99875897     0.04400
C24         C  0.35846102  0.05704641  0.46501363    -0.09700
H25         H  0.29833179  0.11393340  0.49336008     0.10000
H26         H  0.36564524  0.04943774  0.05602619     0.07600
H27         H  0.36943484  0.04690808  0.44053079     0.07400
N28         N  0.46858955  0.40834642  0.99832480    -0.35300
N29         N  0.41317374  0.45852171  0.00147504    -0.55900
N30         N  0.46327439  0.01332661  0.99792418    -0.35300
N31         N  0.01819473  0.46330444  0.99769703    -0.55900
C32         C  0.44154886  0.38731958  0.00455126     0.28300
C33         C  0.49775063  0.38982718  0.00279685     0.28300
C34         C  0.43450115  0.03197106  0.00407352     0.28300
C35         C  0.49072048  0.03430879  0.00270066     0.28300
C36         C  0.39377880  0.42990245  0.99835539     0.36900
C37         C  0.39145820  0.48528791  0.99762836     0.36900
C38         C  0.03982182  0.43640923  0.99412808     0.36900
C39         C  0.03758279  0.49194507  0.99478318     0.36900
C40         C  0.45365978  0.35485278  0.01256677    -0.20600
C41         C  0.48904190  0.35642344  0.01148150    -0.20600
C42         C  0.44372378  0.06537246  0.01219780    -0.20600
C43         C  0.47909120  0.06685007  0.01139597    -0.20600
C44         C  0.35946092  0.43856468  0.99331086    -0.21600
C45         C  0.35799188  0.47362059  0.99284038    -0.21600
C46         C  0.07324909  0.44807751  0.98944066    -0.21600
C47         C  0.07183604  0.48316805  0.98988787    -0.21600
C48         C  0.40622863  0.39600348  0.00128090    -0.17000
C49         C  0.03043884  0.40147832  0.99732548    -0.17000
C50         C  0.02672495  0.02555285  0.99739229    -0.17000
C51         C  0.40007216  0.02029946  0.00061810    -0.17000
H52         H  0.43857822  0.33222239  0.01824529     0.15900
H53         H  0.50631698  0.33514541  0.01603902     0.15900
H54         H  0.42674107  0.08662728  0.01786485     0.15900
H55         H  0.99504697  0.08942014  0.01616753     0.15900
H56         H  0.33768713  0.42143525  0.99044485     0.14200
H57         H  0.33485034  0.48876128  0.98963808     0.14200
H58         H  0.09638749  0.43291857  0.98653013     0.14200
H59         H  0.09366877  0.50022174  0.98741362     0.14200
H60         H  0.46712662  0.43279995  0.98786864     0.27500
H61         H  0.46479319  0.48940425  0.98521061     0.27500
C62         C  0.08932956  0.09495694  0.46836594     0.04400
C63         C  0.06586731  0.06747117  0.46701045    -0.11700
C64         C  0.05238755  0.05371744  0.99905845     0.01900
C65         C  0.06279490  0.06671386  0.03251337    -0.10200
C66         C  0.08519937  0.09469686  0.03442892     0.04400
C67         C  0.09809446  0.10894780  0.50199857    -0.09700
H68         H  0.05867793  0.05615512  0.44151301     0.10000
H69         H  0.05309349  0.05534599  0.05694325     0.07600
H70         H  0.11524696  0.13078766  0.50372046     0.07400
O71         O  0.29120584  0.27513686  0.30759796    -0.74000
O72         O  0.26241905  0.24346763  0.34922977    -0.52900
C73         C  0.28507040  0.26579717  0.34010629     0.79700
O74         O  0.15009164  0.28422358  0.19195167    -0.58600
O75         O  0.17535646  0.25017755  0.14984797    -0.51600
C76         C  0.15511919  0.27454329  0.15929204     0.71800
O77         O  0.15531059  0.28286335  0.31323068    -0.73100
O78         O  0.18545462  0.24943447  0.35245958    -0.53700
C79         C  0.16369360  0.27332750  0.34516727     0.77800
O80         O  0.28670302  0.27386242  0.18591469    -0.58300
O81         O  0.25070426  0.24711408  0.14613664    -0.51400
C82         C  0.27561284  0.26758179  0.15392509     0.74400
Zr83       Zr  0.27155992  0.25823566  0.24732908     2.54700
O84         O  0.27585386  0.32035898  0.24612853    -0.78800
O85         O  0.33387255  0.25211592  0.24395239    -0.92300
Zr86       Zr  0.16949686  0.26588393  0.25177845     2.64700
O87         O  0.17906501  0.32737319  0.25406614    -0.97200
O88         O  0.10730484  0.27315374  0.25381192    -0.79300
O89         O  0.22215215  0.26238834  0.28435342    -0.82600
O90         O  0.21888197  0.26279320  0.21495364    -2.17300
O91         O  0.27910867  0.14122099  0.18383545    -0.66000
O92         O  0.24624174  0.17209594  0.14464645    -0.50600
C93         C  0.26907603  0.14929613  0.15192860     0.72700
O94         O  0.14563465  0.14766523  0.31229067    -0.58900
O95         O  0.18043119  0.17599891  0.35186964    -0.50900
C96         C  0.15580294  0.15510413  0.34434462     0.74500
O97         O  0.14147842  0.14611755  0.19165772    -0.70300
O98         O  0.17078171  0.17652290  0.14935046    -0.49000
C99         C  0.14802613  0.15450941  0.15904508     0.75900
O100        O  0.28197697  0.13603531  0.30495012    -0.65700
O101        O  0.25367306  0.16707300  0.34766784    -0.52900
C102        C  0.27436390  0.14323879  0.33766208     0.74300
Zr103      Zr  0.26436149  0.15652078  0.24576195     2.77500
O104        O  0.25793930  0.09457115  0.24318510    -0.96400
O105        O  0.32702390  0.15368728  0.24507697    -0.77200
Zr106      Zr  0.16161815  0.16377317  0.25113243     2.70100
O107        O  0.15494228  0.10186732  0.25309874    -0.78500
O108        O  0.09990368  0.17448621  0.25213928    -0.97600
Zr109      Zr  0.21977686  0.21017898  0.31695623     2.21500
Zr110      Zr  0.21303200  0.21120921  0.18111329     2.11100
O111        O  0.21118647  0.15934039  0.21424468    -2.46200
O112        O  0.21467858  0.15903576  0.28273600    -0.78300
O113        O  0.26675473  0.20774314  0.21196700    -0.70500
O114        O  0.16641248  0.21453631  0.28565318    -2.31400
O115        O  0.27034621  0.20685207  0.28112577    -2.27600
O116        O  0.16291062  0.21504794  0.21714959    -0.72200
H117        H  0.21954011  0.28257520  0.19944903     0.79800
H118        H  0.14729498  0.21580689  0.30204278     0.80900
H119        H  0.20910789  0.13978843  0.19844041     0.83100
H120        H  0.29075721  0.20518370  0.29589864     0.80700
H121        H  0.09853302  0.25103199  0.26285614     0.43700
H122        H  0.09544390  0.18869226  0.23067303     0.42700
H123        H  0.17874573  0.09292635  0.25158057     0.42400
H124        H  0.24338659  0.09017582  0.22178207     0.40300
H125        H  0.33411702  0.17310995  0.22979144     0.43400
H126        H  0.34020171  0.23790727  0.26488357     0.38200
H127        H  0.25332885  0.32844140  0.25510307     0.44300
H128        H  0.18721289  0.33347261  0.22980184     0.40800
H129        H  0.28103560  0.08606300  0.23643046     0.45700
H130        H  0.34295004  0.27517533  0.24980171     0.44400
H131        H  0.15564142  0.33727605  0.25547333     0.44500
H132        H  0.08931279  0.15206908  0.24636139     0.44900
C133        C  0.10102552  0.15369589  0.11316704     0.24900
C134        C  0.12863281  0.13714797  0.13033139    -0.23200
C135        C  0.13951224  0.10502853  0.11788970     0.19800
C136        C  0.12394424  0.09028759  0.08763931     0.24900
C137        C  0.09766049  0.10774119  0.06927088    -0.23100
C138        C  0.08589853  0.13926967  0.08248463     0.19800
F139        F  0.06037874  0.15636204  0.06511328    -0.13100
F140        F  0.08914155  0.18401762  0.12581453    -0.15500
F141        F  0.13569419  0.05983786  0.07511082    -0.15500
F142        F  0.16618443  0.08868869  0.13413630    -0.13100
C143        C  0.14147070  0.11649210  0.43600844     0.24900
C144        C  0.10607708  0.10850461  0.43537270    -0.23200
C145        C  0.08726197  0.11449384  0.40352063     0.19800
C146        C  0.10338998  0.12896484  0.37350953     0.24900
C147        C  0.13844613  0.13831900  0.37501334    -0.23100
C148        C  0.15716685  0.13180295  0.40663240     0.19800
F149        F  0.19106320  0.13994550  0.40919206    -0.13100
F150        F  0.16132977  0.10899685  0.46502892    -0.15500
F151        F  0.08435681  0.13501947  0.34353341    -0.15500
F152        F  0.05304077  0.10747787  0.40170778    -0.13100
C153        C  0.32058965  0.12620904  0.11957330     0.24900
C154        C  0.28474718  0.13097918  0.12130555    -0.23200
C155        C  0.26391978  0.11860805  0.09316745     0.19800
C156        C  0.27864875  0.10197242  0.06372796     0.24900
C157        C  0.31467682  0.09806683  0.06131385    -0.23100
C158        C  0.33545656  0.11011629  0.08978507     0.19800
F159        F  0.37029829  0.10771815  0.08811577    -0.13100
F160        F  0.34138066  0.13859557  0.14597725    -0.15500
F161        F  0.25755409  0.08935266  0.03769431    -0.15500
F162        F  0.22914324  0.12214497  0.09444873    -0.13100
C163        C  0.33984234  0.11034759  0.40422349     0.24900
C164        C  0.31838458  0.09298196  0.42837381    -0.23200
C165        C  0.28326626  0.08887561  0.42012087     0.19800
C166        C  0.26951234  0.10327486  0.38896131     0.24900
C167        C  0.29037062  0.12284200  0.36626850    -0.23100
C168        C  0.32581978  0.12548874  0.37343561     0.19800
F169        F  0.34639063  0.14435968  0.35178877    -0.13100
F170        F  0.37388874  0.11441078  0.41161529    -0.15500
F171        F  0.23576712  0.09830114  0.38090517    -0.15500
F172        F  0.26224451  0.07136595  0.44257527    -0.13100
C173        C  0.13302952  0.32787969  0.12878400     0.24900
C174        C  0.13627296  0.29200308  0.12995333    -0.23200
C175        C  0.12337367  0.27245761  0.10117609     0.19800
C176        C  0.10852940  0.28825315  0.07144881     0.24900
C177        C  0.10736527  0.32410343  0.06899847    -0.23100
C178        C  0.11884466  0.34386743  0.09834064     0.19800
F179        F  0.11823840  0.37854795  0.09664580    -0.13100
F180        F  0.14574477  0.34748864  0.15588860    -0.15500
F181        F  0.09596160  0.26838646  0.04444489    -0.15500
F182        F  0.12584909  0.23784357  0.10140903    -0.13100
C183        C  0.13885539  0.32544293  0.37582534     0.24900
C184        C  0.14640367  0.29017642  0.37589539    -0.23200
C185        C  0.13705741  0.27057906  0.40583849     0.19800
C186        C  0.12114948  0.28581308  0.43530083     0.24900
C187        C  0.11476827  0.32134120  0.43607935    -0.23100
C188        C  0.12356324  0.34095796  0.40582133     0.19800
F189        F  0.11863417  0.37533739  0.40578584    -0.13100
F190        F  0.14736821  0.34514033  0.34727569    -0.15500
F191        F  0.11152299  0.26546959  0.46296160    -0.15500
F192        F  0.14251447  0.23625818  0.40626370    -0.13100
C193        C  0.28763795  0.31343119  0.06568559     0.24900
C194        C  0.32365922  0.31747735  0.06439113    -0.23200
C195        C  0.34364016  0.30682870  0.09395729     0.19800
C196        C  0.32799135  0.29133204  0.12356589     0.24900
C197        C  0.29220610  0.28561710  0.12380817    -0.23100
C198        C  0.27215427  0.29717304  0.09476146     0.19800
F199        F  0.23739070  0.29309195  0.09468622    -0.13100
F200        F  0.26732327  0.32535270  0.03872621    -0.15500
F201        F  0.34803087  0.28042822  0.15121798    -0.15500
F202        F  0.37846796  0.30990912  0.09350777    -0.13100
C203        C  0.30976866  0.31715915  0.37180757     0.24900
C204        C  0.30532014  0.28150089  0.36954762    -0.23200
C205        C  0.31816975  0.26076302  0.39728472     0.19800
C206        C  0.33363765  0.27539814  0.42753709     0.24900
C207        C  0.33594717  0.31117135  0.43111366    -0.23100
C208        C  0.32469195  0.33193670  0.40252334     0.19800
F209        F  0.32610236  0.36655839  0.40523869    -0.13100
F210        F  0.29765042  0.33780241  0.34538164    -0.15500
F211        F  0.34587581  0.25453846  0.45373521    -0.15500
F212        F  0.31545356  0.22616921  0.39520468    -0.13100
C213        C  0.34591049  0.32731692  0.96585737     0.04400
C214        C  0.33077382  0.31613223  0.99788687    -0.11700
C215        C  0.34110821  0.32917379  0.53105866     0.01900
C216        C  0.36556134  0.35570315  0.53225552    -0.10200
C217        C  0.38079321  0.36754704  0.50052083     0.04400
C218        C  0.37088788  0.35328004  0.96735050    -0.09700
H219        H  0.31137586  0.29619568  0.99690813     0.10000
H220        H  0.37248837  0.36740013  0.55766355     0.07600
H221        H  0.38284338  0.36222100  0.94291349     0.07400
C222        C  0.10005863  0.33849763  0.96891270     0.04600
C223        C  0.07313642  0.36259542  0.96719468    -0.11700
C224        C  0.05865624  0.37457805  0.49916116     0.01900
C225        C  0.07058567  0.36291420  0.53263041    -0.10200
C226        C  0.09714249  0.33869582  0.53449354     0.04400
C227        C  0.11240157  0.32850014  0.00275715    -0.09700
H228        H  0.06292283  0.37057032  0.94145733     0.10000
H229        H  0.05851093  0.37197228  0.55699688     0.07600
H230        H  0.13383454  0.31083690  0.00458549     0.07400
C231        C  0.33391997  0.08163551  0.96284149     0.04400
C232        C  0.31923495  0.09451383  0.99440625    -0.11700
C233        C  0.32971880  0.08304322  0.52864411     0.01900
C234        C  0.35605141  0.05834391  0.53009654    -0.10200
C235        C  0.37058821  0.04557128  0.49832469     0.04400
C236        C  0.36076043  0.05781633  0.96516137    -0.09700
H237        H  0.29929802  0.11381728  0.99243283     0.10000
H238        H  0.36520446  0.04895341  0.55573589     0.07600
H239        H  0.37224819  0.04774388  0.94091056     0.07400
N240        N  0.46867943  0.40817125  0.49926391    -0.35300
N241        N  0.41331755  0.45834010  0.50214672    -0.55900
N242        N  0.46198787  0.01404520  0.49623097    -0.35300
N243        N  0.01870856  0.46209963  0.49635584    -0.55900
C244        C  0.44159874  0.38709635  0.50506761     0.28300
C245        C  0.49776464  0.38957168  0.50373720     0.28300
C246        C  0.43296360  0.03219360  0.50266162     0.28300
C247        C  0.48912670  0.03528606  0.50166615     0.28300
C248        C  0.39392926  0.42972955  0.49878757     0.36900
C249        C  0.39162757  0.48511578  0.49823201     0.36900
C250        C  0.03994041  0.43501626  0.49203080     0.36900
C251        C  0.03813517  0.49052269  0.49228537     0.36900
C252        C  0.45361230  0.35454573  0.51284822    -0.20600
C253        C  0.48897610  0.35609633  0.51203518    -0.20600
C254        C  0.44170405  0.06562584  0.51128491    -0.20600
C255        C  0.47704225  0.06756225  0.51075318    -0.20600
C256        C  0.35965978  0.43839701  0.49352087    -0.21600
C257        C  0.35819228  0.47344585  0.49320471    -0.21600
C258        C  0.07314527  0.44633068  0.48527562    -0.21600
C259        C  0.07201853  0.48143932  0.48552907    -0.21600
C260        C  0.40633196  0.39581881  0.50162941    -0.17000
C261        C  0.03055605  0.40040546  0.49750830    -0.17000
C262        C  0.02652857  0.02566240  0.49738631    -0.17000
C263        C  0.39871223  0.01996613  0.49952157    -0.17000
H264        H  0.43848494  0.33186785  0.51818384     0.15900
H265        H  0.50618395  0.33475756  0.51654667     0.15900
H266        H  0.42444289  0.08654931  0.51737722     0.15900
H267        H  0.99471777  0.08922644  0.51695290     0.15900
H268        H  0.33792246  0.42126969  0.49035684     0.14200
H269        H  0.33507567  0.48858033  0.48979690     0.14200
H270        H  0.09604056  0.43096820  0.48159463     0.14200
H271        H  0.09387253  0.49828677  0.48202451     0.14200
H272        H  0.46732512  0.43268406  0.48902340     0.27500
H273        H  0.46502605  0.48897123  0.48636198     0.27500
C274        C  0.08902141  0.09556081  0.96908985     0.04400
C275        C  0.06593897  0.06777182  0.96743967    -0.11700
C276        C  0.05221667  0.05381869  0.49879333     0.01900
C277        C  0.06300872  0.06681098  0.53211817    -0.10200
C278        C  0.08584047  0.09446600  0.53373166     0.04400
C279        C  0.09744700  0.10949753  0.00284061    -0.09700
H280        H  0.05894184  0.05658223  0.94182136     0.10000
H281        H  0.05332571  0.05567161  0.55667040     0.07600
H282        H  0.11437499  0.13149478  0.00476158     0.07400
O283        O  0.29006366  0.27612427  0.80753074    -0.74000
O284        O  0.26153545  0.24399887  0.84892673    -0.52900
C285        C  0.28399925  0.26657785  0.83995713     0.79700
O286        O  0.14840866  0.28292918  0.69225662    -0.58600
O287        O  0.17504636  0.24970831  0.65031055    -0.51600
C288        C  0.15409804  0.27346695  0.65967348     0.71800
O289        O  0.15510758  0.28288641  0.81356590    -0.73100
O290        O  0.18472199  0.24886540  0.85266164    -0.53700
C291        C  0.16333216  0.27309928  0.84548716     0.77800
O292        O  0.28736644  0.27419992  0.68674359    -0.58300
O293        O  0.25095960  0.24786243  0.64709541    -0.51400
C294        C  0.27612114  0.26812921  0.65479064     0.74400
Zr295      Zr  0.27080434  0.25831493  0.74758487     2.54700
O296        O  0.27401514  0.32042446  0.74457161    -0.78800
O297        O  0.33308625  0.25114502  0.74680758    -0.92300
Zr298      Zr  0.16851715  0.26554076  0.75197000     2.64700
O299        O  0.17724975  0.32723518  0.75214884    -0.97200
O300        O  0.10616777  0.27110845  0.75591420    -0.79300
O301        O  0.22125177  0.26226083  0.78445931    -0.82600
O302        O  0.21811602  0.26256038  0.71528371    -2.17300
O303        O  0.27936242  0.14092217  0.68444584    -0.66000
O304        O  0.24637112  0.17158784  0.64522625    -0.50600
C305        C  0.26927690  0.14884369  0.65255947     0.72700
O306        O  0.14522128  0.14776351  0.81253545    -0.58900
O307        O  0.18076331  0.17526681  0.85202917    -0.50900
C308        C  0.15580695  0.15477563  0.84460166     0.74500
O309        O  0.14130758  0.14698123  0.69079361    -0.70300
O310        O  0.17165206  0.17651427  0.64858686    -0.49000
C311        C  0.14849711  0.15490977  0.65816733     0.75900
O312        O  0.28227643  0.13634349  0.80493309    -0.65700
O313        O  0.25446286  0.16781779  0.84763224    -0.52900
C314        C  0.27518037  0.14396799  0.83765143     0.74300
Zr315      Zr  0.26395764  0.15650411  0.74594969     2.77500
O316        O  0.25803313  0.09446735  0.74402666    -0.96400
O317        O  0.32661351  0.15428280  0.74431207    -0.77200
Zr318      Zr  0.16091414  0.16364579  0.75098159     2.70100
O319        O  0.15371853  0.10181519  0.75172002    -0.78500
O320        O  0.09885426  0.17253048  0.75284528    -0.97600
Zr321      Zr  0.21921257  0.21000940  0.81693106     2.21500
Zr322      Zr  0.21304047  0.21110899  0.68130255     2.11100
O323        O  0.21078931  0.15922990  0.71441499    -2.46200
O324        O  0.21401879  0.15887963  0.78263502    -0.78300
O325        O  0.26659817  0.20777483  0.71217629    -0.70500
O326        O  0.16566991  0.21425185  0.78576427    -2.31400
O327        O  0.26970379  0.20687149  0.78121814    -2.27600
O328        O  0.16248114  0.21486583  0.71695822    -0.72200
H329        H  0.21874459  0.28230893  0.69973400     0.79800
H330        H  0.14658050  0.21548252  0.80219379     0.80900
H331        H  0.20880113  0.13968597  0.69858441     0.83100
H332        H  0.29009973  0.20531955  0.79602338     0.80700
H333        H  0.09702622  0.25186996  0.74140067     0.43700
H334        H  0.09316717  0.18391871  0.72989303     0.42700
H335        H  0.17470742  0.09287194  0.74002628     0.42400
H336        H  0.24298689  0.08980209  0.72305790     0.40300
H337        H  0.33335996  0.17461625  0.73019803     0.43400
H338        H  0.33899593  0.24112692  0.77038419     0.38200
H339        H  0.25751377  0.32849943  0.76287865     0.44300
H340        H  0.18764192  0.33240454  0.72859211     0.40800
H341        H  0.28102110  0.08609910  0.73670931     0.45700
H342        H  0.34230232  0.27476958  0.74792681     0.44400
H343        H  0.15371875  0.33690060  0.75064166     0.44500
H344        H  0.08892040  0.14928105  0.75043349     0.44900
C345        C  0.10156135  0.15370730  0.61225934     0.24900
C346        C  0.12940058  0.13745896  0.62931359    -0.23200
C347        C  0.14078197  0.10559255  0.61664116     0.19800
C348        C  0.12509647  0.09056795  0.58660570     0.24900
C349        C  0.09849402  0.10770834  0.56840477    -0.23100
C350        C  0.08658756  0.13920358  0.58154785     0.19800
F351        F  0.06111567  0.15623149  0.56403217    -0.13100
F352        F  0.08934783  0.18386175  0.62499053    -0.15500
F353        F  0.13697793  0.06013929  0.57415386    -0.15500
F354        F  0.16797464  0.08975828  0.63250297    -0.13100
C355        C  0.14120654  0.11727394  0.93690511     0.24900
C356        C  0.10581770  0.10931042  0.93622893    -0.23200
C357        C  0.08703349  0.11529427  0.90437627     0.19800
C358        C  0.10329668  0.12919451  0.87415094     0.24900
C359        C  0.13844350  0.13821963  0.87547825    -0.23100
C360        C  0.15703753  0.13218054  0.90734912     0.19800
F361        F  0.19087826  0.14055097  0.91008862    -0.13100
F362        F  0.16090035  0.11023948  0.96618064    -0.15500
F363        F  0.08425824  0.13518940  0.84417334    -0.15500
F364        F  0.05266580  0.10896444  0.90283878    -0.13100
C365        C  0.32067254  0.12525102  0.62022899     0.24900
C366        C  0.28484507  0.13032306  0.62203618    -0.23200
C367        C  0.26384834  0.11806643  0.59399895     0.19800
C368        C  0.27835453  0.10138825  0.56452983     0.24900
C369        C  0.31434291  0.09758333  0.56182667    -0.23100
C370        C  0.33535599  0.10950250  0.59014487     0.19800
F371        F  0.37019708  0.10741570  0.58797440    -0.13100
F372        F  0.34162600  0.13699645  0.64681271    -0.15500
F373        F  0.25709502  0.08875540  0.53864484    -0.15500
F374        F  0.22910457  0.12178402  0.59538533    -0.13100
C375        C  0.34162798  0.11081389  0.90340438     0.24900
C376        C  0.32044043  0.09320680  0.92770293    -0.23200
C377        C  0.28526343  0.08909961  0.91965727     0.19800
C378        C  0.27110146  0.10395975  0.88893903     0.24900
C379        C  0.29162861  0.12380728  0.86623170    -0.23100
C380        C  0.32718337  0.12637323  0.87296894     0.19800
F381        F  0.34743815  0.14554763  0.85127437    -0.13100
F382        F  0.37579482  0.11468565  0.91027449    -0.15500
F383        F  0.23719233  0.09929149  0.88143425    -0.15500
F384        F  0.26449406  0.07121760  0.94202553    -0.13100
C385        C  0.13161701  0.32642204  0.62935647     0.24900
C386        C  0.13545381  0.29064446  0.63022700    -0.23200
C387        C  0.12383414  0.27107512  0.60092895     0.19800
C388        C  0.10965230  0.28683515  0.57089834     0.24900
C389        C  0.10760956  0.32269475  0.56889390    -0.23100
C390        C  0.11784587  0.34240203  0.59877569     0.19800
F391        F  0.11637772  0.37706956  0.59759022    -0.13100
F392        F  0.14336794  0.34597603  0.65697347    -0.15500
F393        F  0.09847550  0.26691874  0.54328821    -0.15500
F394        F  0.12694676  0.23650585  0.60098045    -0.13100
C395        C  0.13894638  0.32549623  0.87585440     0.24900
C396        C  0.14642818  0.29022992  0.87631158    -0.23200
C397        C  0.13752772  0.27106810  0.90673896     0.19800
C398        C  0.12119170  0.28656532  0.93579712     0.24900
C399        C  0.11465576  0.32207151  0.93609586    -0.23100
C400        C  0.12364675  0.34136908  0.90565020     0.19800
F401        F  0.11904238  0.37578759  0.90526080    -0.13100
F402        F  0.14790384  0.34491480  0.84723941    -0.15500
F403        F  0.11141894  0.26650095  0.96362878    -0.15500
F404        F  0.14414238  0.23697986  0.90825293    -0.13100
C405        C  0.28852333  0.31169671  0.56530656     0.24900
C406        C  0.32450183  0.31615788  0.56417862    -0.23200
C407        C  0.34444276  0.30617561  0.59400666     0.19800
C408        C  0.32875039  0.29144744  0.62405348     0.24900
C409        C  0.29289077  0.28592568  0.62451182    -0.23100
C410        C  0.27294130  0.29673135  0.59506853     0.19800
F411        F  0.23813933  0.29305201  0.59519462    -0.13100
F412        F  0.26831220  0.32172755  0.53742325    -0.15500
F413        F  0.34883589  0.28104754  0.65188006    -0.15500
F414        F  0.37930375  0.30891709  0.59325937    -0.13100
C415        C  0.30918365  0.31783558  0.87149570     0.24900
C416        C  0.30416571  0.28223867  0.86949496    -0.23200
C417        C  0.31629520  0.26153949  0.89761566     0.19800
C418        C  0.33182814  0.27615956  0.92784596     0.24900
C419        C  0.33471774  0.31192387  0.93115511    -0.23100
C420        C  0.32400429  0.33262262  0.90227428     0.19800
F421        F  0.32565603  0.36723950  0.90482130    -0.13100
F422        F  0.29743439  0.33847757  0.84488583    -0.15500
F423        F  0.34340469  0.25529131  0.95435164    -0.15500
F424        F  0.31251390  0.22701214  0.89609644    -0.13100
C425        C  0.34743873  0.82554459  0.46585044     0.04400
C426        C  0.33276860  0.81365429  0.49778397    -0.11700
C427        C  0.33883240  0.83112539  0.03097173     0.01900
C428        C  0.36434619  0.85665257  0.03195702    -0.10200
C429        C  0.37950348  0.86818716  0.00006602     0.04400
C430        C  0.37141540  0.85237190  0.46735859    -0.09700
H431        H  0.31416667  0.79298423  0.49671802     0.10000
H432        H  0.37212277  0.86787901  0.05733400     0.07600
H433        H  0.38308170  0.86171311  0.44292993     0.07400
C434        C  0.10266433  0.84049785  0.46770639     0.04600
C435        C  0.07508439  0.86369958  0.46644186    -0.11700
C436        C  0.06095060  0.87612801  0.99900096     0.01900
C437        C  0.07403796  0.86526433  0.03231037    -0.10200
C438        C  0.10138304  0.84188347  0.03374908     0.04400
C439        C  0.11619923  0.83114639  0.50114905    -0.09700
H440        H  0.06435524  0.87145619  0.44084636     0.10000
H441        H  0.06222992  0.87420831  0.05686284     0.07600
H442        H  0.13834346  0.81429765  0.50214927     0.07400
C443        C  0.33423179  0.58111610  0.46426161     0.04400
C444        C  0.31981796  0.59372624  0.49608372    -0.11700
C445        C  0.33118966  0.58222187  0.02968317     0.01900
C446        C  0.35784232  0.55784949  0.03093959    -0.10200
C447        C  0.37312645  0.54606305  0.99912986     0.04400
C448        C  0.36124106  0.55749527  0.46608325    -0.09700
H449        H  0.29988020  0.61304465  0.49440840     0.10000
H450        H  0.36654699  0.54778160  0.05645847     0.07600
H451        H  0.37254419  0.54767643  0.44162280     0.07400
N452        N  0.46763131  0.90832490  0.99771180    -0.35300
N453        N  0.41222454  0.95865904  0.00201350    -0.55900
N454        N  0.46416233  0.51349208  0.99685485    -0.35300
N455        N  0.01989026  0.96307031  0.99699360    -0.55900
C456        C  0.44053294  0.88753290  0.00455370     0.28300
C457        C  0.49673845  0.88986993  0.00292460     0.28300
C458        C  0.43538298  0.53186571  0.00373237     0.28300
C459        C  0.49159071  0.53432371  0.00254403     0.28300
C460        C  0.39288784  0.93011228  0.99808245     0.36900
C461        C  0.39054060  0.98545288  0.99811243     0.36900
C462        C  0.04151253  0.93625680  0.99304225     0.36900
C463        C  0.03899268  0.99172232  0.99289969     0.36900
C464        C  0.45252421  0.85529706  0.01365200    -0.20600
C465        C  0.48791099  0.85675947  0.01266732    -0.20600
C466        C  0.44457061  0.56500215  0.01308707    -0.20600
C467        C  0.47995115  0.56653794  0.01244034    -0.20600
C468        C  0.35864353  0.93881565  0.99257956    -0.21600
C469        C  0.35715636  0.97384993  0.99262938    -0.21600
C470        C  0.07465768  0.94798864  0.98666040    -0.21600
C471        C  0.07306890  0.98306880  0.98662986    -0.21600
C472        C  0.40526125  0.89622992  0.00092629    -0.17000
C473        C  0.03246659  0.90143348  0.99770900    -0.17000
C474        C  0.02531641  0.52590027  0.99861664    -0.17000
C475        C  0.40097527  0.52014454  0.00023338    -0.17000
H476        H  0.43736023  0.83291510  0.02009842     0.15900
H477        H  0.50510633  0.83561049  0.01812592     0.15900
H478        H  0.42756062  0.58599230  0.01967225     0.15900
H479        H  0.99352722  0.58982754  0.01691452     0.15900
H480        H  0.33692856  0.92172791  0.98900772     0.14200
H481        H  0.33408067  0.98901692  0.98908055     0.14200
H482        H  0.09775974  0.93290312  0.98309534     0.14200
H483        H  0.09469367  0.00019721  0.98305968     0.14200
H484        H  0.46620813  0.93239829  0.98628928     0.27500
H485        H  0.46391920  0.98886522  0.98731552     0.27500
C486        C  0.09016666  0.59318240  0.46952385     0.04400
C487        C  0.06670258  0.56574245  0.46788027    -0.11700
C488        C  0.05111003  0.55411896  0.99975330     0.01900
C489        C  0.06164567  0.56767754  0.03295291    -0.10200
C490        C  0.08471511  0.59521636  0.03438796     0.04400
C491        C  0.09847772  0.60722096  0.50326734    -0.09700
H492        H  0.05975303  0.55448718  0.44228037     0.10000
H493        H  0.05151573  0.55709509  0.05757612     0.07600
H494        H  0.11570059  0.62899475  0.50507159     0.07400
O495        O  0.29097151  0.77468026  0.30792004    -0.74000
O496        O  0.26202778  0.74330666  0.34968802    -0.52900
C497        C  0.28472111  0.76551911  0.34045409     0.79700
O498        O  0.15150885  0.78433746  0.19162200    -0.58600
O499        O  0.17733701  0.75013037  0.15006719    -0.51600
C500        C  0.15722829  0.77475730  0.15905894     0.71800
O501        O  0.15639647  0.78359415  0.31275580    -0.73100
O502        O  0.18534505  0.74953075  0.35238082    -0.53700
C503        C  0.16431020  0.77395341  0.34476826     0.77800
O504        O  0.28713085  0.77426071  0.18664216    -0.58300
O505        O  0.25213899  0.74613823  0.14690408    -0.51400
C506        C  0.27642812  0.76742436  0.15462477     0.74400
Zr507      Zr  0.27197845  0.75709351  0.24768694     2.54700
O508        O  0.27819091  0.81905514  0.24682038    -0.78800
O509        O  0.33381148  0.74732482  0.24458403    -0.92300
Zr510      Zr  0.16969870  0.76527706  0.25160955     2.64700
O511        O  0.17780879  0.82703971  0.25316291    -0.97200
O512        O  0.10719628  0.76979474  0.25429952    -0.79300
O513        O  0.22229749  0.76161691  0.28431428    -0.82600
O514        O  0.21940554  0.76174690  0.21523856    -2.17300
O515        O  0.27796126  0.63827479  0.18550907    -0.66000
O516        O  0.24559010  0.66909239  0.14581445    -0.50600
C517        C  0.26801224  0.64595921  0.15347732     0.72700
O518        O  0.14639727  0.64690029  0.31349038    -0.58900
O519        O  0.18106205  0.67537676  0.35308842    -0.50900
C520        C  0.15659278  0.65430435  0.34561951     0.74500
O521        O  0.14075603  0.64726259  0.19184574    -0.70300
O522        O  0.17008502  0.67766499  0.14954982    -0.49000
C523        C  0.14706872  0.65593587  0.15922311     0.75900
O524        O  0.28239364  0.63616790  0.30658540    -0.65700
O525        O  0.25418436  0.66751601  0.34909139    -0.52900
C526        C  0.27502086  0.64369581  0.33928769     0.74300
Zr527      Zr  0.26409694  0.65539010  0.24706320     2.77500
O528        O  0.25701196  0.59347643  0.24739975    -0.96400
O529        O  0.32661113  0.65132550  0.24411784    -0.77200
Zr530      Zr  0.16152493  0.66320441  0.25180299     2.70100
O531        O  0.15688657  0.60114958  0.24945055    -0.78500
O532        O  0.09939946  0.67038888  0.25569211    -0.97600
Zr533      Zr  0.21965274  0.70976004  0.31754893     2.21500
Zr534      Zr  0.21371567  0.71018793  0.18153276     2.11100
O535        O  0.21117724  0.65856330  0.21514014    -2.46200
O536        O  0.21431298  0.65832622  0.28383921    -0.78300
O537        O  0.26722707  0.70636319  0.21266060    -0.70500
O538        O  0.16637528  0.71421237  0.28597594    -2.31400
O539        O  0.27028333  0.70600664  0.28192334    -2.27600
O540        O  0.16329536  0.71425613  0.21730445    -0.72200
H541        H  0.22027033  0.78148048  0.19968540     0.79800
H542        H  0.14726568  0.71562469  0.30237013     0.80900
H543        H  0.20888767  0.63891490  0.19949481     0.83100
H544        H  0.29064963  0.70440357  0.29675930     0.80700
H545        H  0.09966933  0.74856769  0.26638518     0.43700
H546        H  0.09363301  0.68666548  0.23628157     0.42700
H547        H  0.17748400  0.59286819  0.26256181     0.42400
H548        H  0.24535191  0.58798489  0.22442139     0.40300
H549        H  0.33394055  0.67302911  0.23284315     0.43400
H550        H  0.34046005  0.73943777  0.26883506     0.38200
H551        H  0.25700989  0.82767804  0.25840653     0.44300
H552        H  0.19193365  0.83222229  0.23183309     0.40800
H553        H  0.28065946  0.58440489  0.24461796     0.45700
H554        H  0.34392393  0.77052343  0.24266412     0.44400
H555        H  0.15479919  0.83654182  0.24742507     0.44500
H556        H  0.08979971  0.64823699  0.24740485     0.44900
C557        C  0.10378022  0.65774249  0.10949861     0.24900
C558        C  0.12728349  0.63903816  0.13039985    -0.23200
C559        C  0.13413274  0.60480183  0.12151566     0.19800
C560        C  0.11865796  0.58985450  0.09127229     0.24900
C561        C  0.09680168  0.60925721  0.06909346    -0.23100
C562        C  0.08909491  0.64316664  0.07867491     0.19800
F563        F  0.06775481  0.66224670  0.05782647    -0.13100
F564        F  0.09506708  0.69007595  0.11899960    -0.15500
F565        F  0.12650929  0.55706605  0.08247719    -0.15500
F566        F  0.15716633  0.58645441  0.14109134    -0.13100
C567        C  0.14238951  0.61499711  0.43735748     0.24900
C568        C  0.10702357  0.60693023  0.43663235    -0.23200
C569        C  0.08821747  0.61327451  0.40485749     0.19800
C570        C  0.10431893  0.62803869  0.37497397     0.24900
C571        C  0.13937913  0.63734880  0.37642837    -0.23100
C572        C  0.15805734  0.63076460  0.40813562     0.19800
F573        F  0.19178959  0.63945140  0.41102669    -0.13100
F574        F  0.16218369  0.60718418  0.46634490    -0.15500
F575        F  0.08518052  0.63460897  0.34520469    -0.15500
F576        F  0.05397998  0.60635871  0.40301700    -0.13100
C577        C  0.31974371  0.62228068  0.12212887     0.24900
C578        C  0.28388230  0.62723871  0.12319015    -0.23200
C579        C  0.26355460  0.61535496  0.09442682     0.19800
C580        C  0.27883828  0.59926488  0.06495655     0.24900
C581        C  0.31491890  0.59562337  0.06303263    -0.23100
C582        C  0.33516870  0.60682347  0.09228487     0.19800
F583        F  0.37004205  0.60444545  0.09130066    -0.13100
F584        F  0.34008827  0.63426645  0.14910907    -0.15500
F585        F  0.25825536  0.58713545  0.03823193    -0.15500
F586        F  0.22879000  0.61918745  0.09488890    -0.13100
C587        C  0.34156207  0.61041605  0.40493273     0.24900
C588        C  0.32048292  0.59282841  0.42931068    -0.23200
C589        C  0.28534536  0.58845981  0.42128213     0.19800
C590        C  0.27100163  0.60356929  0.39075123     0.24900
C591        C  0.29143177  0.62352343  0.36798742    -0.23100
C592        C  0.32706557  0.62574006  0.37440847     0.19800
F593        F  0.34745214  0.64411799  0.35211898    -0.13100
F594        F  0.37573247  0.61435981  0.41173511    -0.15500
F595        F  0.23715576  0.59861018  0.38321739    -0.15500
F596        F  0.26488810  0.56983982  0.44331584    -0.13100
C597        C  0.13446373  0.82835609  0.12927520     0.24900
C598        C  0.13954435  0.79265119  0.12919926    -0.23200
C599        C  0.12949133  0.77373324  0.09880374     0.19800
C600        C  0.11529917  0.78984812  0.06905751     0.24900
C601        C  0.11239626  0.82564619  0.06787915    -0.23100
C602        C  0.12154184  0.84485906  0.09850501     0.19800
F603        F  0.11960684  0.87952916  0.09802709    -0.13100
F604        F  0.14374506  0.84740025  0.15824864    -0.15500
F605        F  0.10473304  0.77024031  0.04095263    -0.15500
F606        F  0.13384603  0.73936162  0.09751996    -0.13100
C607        C  0.14162252  0.82700567  0.37514884     0.24900
C608        C  0.14731588  0.79140812  0.37519409    -0.23200
C609        C  0.13655784  0.77215124  0.40485345     0.19800
C610        C  0.12114696  0.78809315  0.43416350     0.24900
C611        C  0.11643922  0.82384446  0.43484594    -0.23100
C612        C  0.12646100  0.84312395  0.40483636     0.19800
F613        F  0.12304414  0.87768246  0.40492073    -0.13100
F614        F  0.15209132  0.84637595  0.34707346    -0.15500
F615        F  0.11064902  0.76835828  0.46195415    -0.15500
F616        F  0.14043481  0.73761392  0.40526196    -0.13100
C617        C  0.28685358  0.81385057  0.06638053     0.24900
C618        C  0.32284199  0.81789742  0.06432632    -0.23200
C619        C  0.34344040  0.80674807  0.09319673     0.19800
C620        C  0.32840717  0.79106889  0.12307353     0.24900
C621        C  0.29255954  0.78578491  0.12433529    -0.23100
C622        C  0.27194283  0.79767131  0.09585567     0.19800
F623        F  0.23717848  0.79377070  0.09663449    -0.13100
F624        F  0.26602499  0.82544420  0.03967675    -0.15500
F625        F  0.34909362  0.77935802  0.14981335    -0.15500
F626        F  0.37828582  0.80928402  0.09160867    -0.13100
C627        C  0.30891123  0.81680146  0.37250003     0.24900
C628        C  0.30507130  0.78112521  0.36978745    -0.23200
C629        C  0.31862657  0.76019563  0.39700479     0.19800
C630        C  0.33446578  0.77466473  0.42713678     0.24900
C631        C  0.33627957  0.81042150  0.43113076    -0.23100
C632        C  0.32413961  0.83138313  0.40311616     0.19800
F633        F  0.32481826  0.86597586  0.40645936    -0.13100
F634        F  0.29571461  0.83760255  0.34677808    -0.15500
F635        F  0.34734441  0.75368575  0.45289941    -0.15500
F636        F  0.31600632  0.72560447  0.39465207    -0.13100
C637        C  0.34366144  0.82875629  0.96567116     0.04400
C638        C  0.32878952  0.81738946  0.99772057    -0.11700
C639        C  0.34142588  0.82830040  0.53102623     0.01900
C640        C  0.36545604  0.85524840  0.53216521    -0.10200
C641        C  0.38047540  0.86726892  0.50035824     0.04400
C642        C  0.36902139  0.85430418  0.96699928    -0.09700
H643        H  0.30932731  0.79750658  0.99674653     0.10000
H644        H  0.37220190  0.86710024  0.55754436     0.07600
H645        H  0.38069459  0.86333483  0.94244467     0.07400
C646        C  0.10236577  0.83960489  0.96824985     0.04600
C647        C  0.07474260  0.86282295  0.96704869    -0.11700
C648        C  0.06073935  0.87635868  0.49840728     0.01900
C649        C  0.07319228  0.86482260  0.53175317    -0.10200
C650        C  0.10058519  0.84147953  0.53327109     0.04400
C651        C  0.11635615  0.83070983  0.00164232    -0.09700
H652        H  0.06357738  0.87013299  0.94150939     0.10000
H653        H  0.06084495  0.87326751  0.55619846     0.07600
H654        H  0.13828114  0.81358103  0.00273852     0.07400
C655        C  0.33456064  0.58196653  0.96420161     0.04400
C656        C  0.31996668  0.59420680  0.99606759    -0.11700
C657        C  0.33125631  0.58219457  0.52981046     0.01900
C658        C  0.35796654  0.55785302  0.53116749    -0.10200
C659        C  0.37318515  0.54582805  0.49941615     0.04400
C660        C  0.36144115  0.55819022  0.96587462    -0.09700
H661        H  0.29997823  0.61349528  0.99455523     0.10000
H662        H  0.36681361  0.54800338  0.55672577     0.07600
H663        H  0.37284641  0.54863125  0.94135294     0.07400
N664        N  0.46792791  0.90888429  0.49763499    -0.35300
N665        N  0.41172270  0.95850863  0.50115179    -0.55900
N666        N  0.46435234  0.51336242  0.49719609    -0.35300
N667        N  0.01970996  0.96322268  0.49668977    -0.55900
C668        C  0.44112371  0.88749091  0.50363307     0.28300
C669        C  0.49731439  0.89058816  0.50168898     0.28300
C670        C  0.43554981  0.53186042  0.50363395     0.28300
C671        C  0.49176321  0.53434869  0.50228273     0.28300
C672        C  0.39272349  0.92961623  0.49820426     0.36900
C673        C  0.38965371  0.98497549  0.49714359     0.36900
C674        C  0.04132874  0.93645552  0.49248085     0.36900
C675        C  0.03883552  0.99187806  0.49283801     0.36900
C676        C  0.45361875  0.85498472  0.51080855    -0.20600
C677        C  0.48896280  0.85692485  0.50958699    -0.20600
C678        C  0.44472309  0.56524201  0.51200265    -0.20600
C679        C  0.48010367  0.56680730  0.51120596    -0.20600
C680        C  0.35829925  0.93781092  0.49304640    -0.21600
C681        C  0.35635782  0.97284999  0.49235811    -0.21600
C682        C  0.07449390  0.94821020  0.48623851    -0.21600
C683        C  0.07293084  0.98327460  0.48657199    -0.21600
C684        C  0.40565155  0.89587654  0.50113021    -0.17000
C685        C  0.03228094  0.90165191  0.49706260    -0.17000
C686        C  0.02643208  0.52445472  0.49758239    -0.17000
C687        C  0.40112824  0.51999774  0.50063838    -0.17000
H688        H  0.43881677  0.83210317  0.51617504     0.15900
H689        H  0.50646672  0.83576073  0.51376416     0.15900
H690        H  0.42770389  0.58636471  0.51807998     0.15900
H691        H  0.99573628  0.58860882  0.51720420     0.15900
H692        H  0.33677567  0.92037807  0.49014998     0.14200
H693        H  0.33303281  0.98767594  0.48896872     0.14200
H694        H  0.09760153  0.93315361  0.48258648     0.14200
H695        H  0.09457975  0.00041344  0.48320327     0.14200
H696        H  0.46613510  0.93358562  0.48800297     0.27500
H697        H  0.46298589  0.98974341  0.48521263     0.27500
C698        C  0.08887257  0.59456942  0.96897505     0.04400
C699        C  0.06511982  0.56727405  0.96786173    -0.11700
C700        C  0.05256254  0.55218648  0.49945355     0.01900
C701        C  0.06272696  0.56534593  0.53295214    -0.10200
C702        C  0.08555516  0.59304255  0.53496612     0.04400
C703        C  0.09753783  0.60893907  0.00247183    -0.09700
H704        H  0.05797478  0.55574362  0.94245430     0.10000
H705        H  0.05227794  0.55450927  0.55731110     0.07600
H706        H  0.11496498  0.63057829  0.00393521     0.07400
O707        O  0.28911872  0.77578617  0.80804756    -0.74000
O708        O  0.26030801  0.74407636  0.84961951    -0.52900
C709        C  0.28253562  0.76678623  0.84052442     0.79700
O710        O  0.15128333  0.78315975  0.69055624    -0.58600
O711        O  0.17863765  0.74988267  0.64927761    -0.51600
C712        C  0.15791134  0.77405864  0.65801963     0.71800
O713        O  0.15459470  0.78235504  0.81224345    -0.73100
O714        O  0.18392224  0.74871505  0.85197971    -0.53700
C715        C  0.16246783  0.77277503  0.84434595     0.77800
O716        O  0.28777622  0.77299619  0.68658907    -0.58300
O717        O  0.25229730  0.74553958  0.64685040    -0.51400
C718        C  0.27698626  0.76632043  0.65455823     0.74400
Zr719      Zr  0.27175888  0.75709474  0.74779665     2.54700
O720        O  0.27773320  0.81906021  0.74639561    -0.78800
O721        O  0.33398457  0.74901132  0.74743933    -0.92300
Zr722      Zr  0.16930309  0.76489526  0.75093350     2.64700
O723        O  0.17866409  0.82648939  0.75177602    -0.97200
O724        O  0.10684888  0.77010062  0.75265329    -0.79300
O725        O  0.22172027  0.76139406  0.78394378    -0.82600
O726        O  0.21936350  0.76150772  0.71505579    -2.17300
O727        O  0.27963741  0.63914863  0.68606283    -0.66000
O728        O  0.24720675  0.66974552  0.64626695    -0.50600
C729        C  0.26978153  0.64682968  0.65402458     0.72700
O730        O  0.14502988  0.64698498  0.81249163    -0.58900
O731        O  0.18035212  0.67467018  0.85203337    -0.50900
C732        C  0.15548895  0.65406616  0.84453422     0.74500
O733        O  0.14188189  0.64506811  0.69192546    -0.70300
O734        O  0.17105017  0.67587047  0.64981491    -0.49000
C735        C  0.14832920  0.65371293  0.65939125     0.75900
O736        O  0.28385459  0.63745948  0.80656979    -0.65700
O737        O  0.25422441  0.66782306  0.84877969    -0.52900
C738        C  0.27598710  0.64475124  0.83915236     0.74300
Zr739      Zr  0.26401384  0.65530656  0.74732239     2.77500
O740        O  0.25230666  0.59410976  0.74717668    -0.96400
O741        O  0.32599651  0.64609118  0.74625846    -0.77200
Zr742      Zr  0.16149573  0.66283103  0.75139104     2.70100
O743        O  0.15653793  0.60077992  0.75248829    -0.78500
O744        O  0.09943399  0.67124359  0.75434747    -0.97600
Zr745      Zr  0.21903924  0.70959159  0.81722084     2.21500
Zr746      Zr  0.21403646  0.70981353  0.68155632     2.11100
O747        O  0.21137899  0.65823611  0.71501977    -2.46200
O748        O  0.21407221  0.65805425  0.78380692    -0.78300
O749        O  0.26750370  0.70623407  0.71293093    -0.70500
O750        O  0.16601746  0.71388927  0.78531665    -2.31400
O751        O  0.26995132  0.70605684  0.78202575    -2.27600
O752        O  0.16321334  0.71378919  0.71666312    -0.72200
H753        H  0.22033007  0.78117924  0.69941863     0.79800
H754        H  0.14675882  0.71523683  0.80152199     0.80900
H755        H  0.20939070  0.63859847  0.69932564     0.83100
H756        H  0.29018876  0.70464267  0.79706796     0.80700
H757        H  0.09877665  0.74766748  0.76157643     0.43700
H758        H  0.09292931  0.68055260  0.73060774     0.42700
H759        H  0.18041812  0.59262341  0.75621908     0.42400
H760        H  0.24550869  0.58864560  0.72218799     0.40300
H761        H  0.33571734  0.66860107  0.73958094     0.43400
H762        H  0.33932564  0.73714839  0.77019811     0.38200
H763        H  0.25421534  0.82774815  0.75095604     0.44300
H764        H  0.18955230  0.83169485  0.72847251     0.40800
H765        H  0.27522035  0.58335846  0.75019797     0.45700
H766        H  0.34355061  0.77232612  0.75072910     0.44400
H767        H  0.15526950  0.83640569  0.74984248     0.44500
H768        H  0.08972675  0.64780051  0.75452442     0.44900
C769        C  0.10737280  0.65662984  0.60805521     0.24900
C770        C  0.12831400  0.63694234  0.63070578    -0.23200
C771        C  0.13127300  0.60160050  0.62454464     0.19800
C772        C  0.11581084  0.58674749  0.59420033     0.24900
C773        C  0.09702872  0.60710783  0.56993657    -0.23100
C774        C  0.09198587  0.64192242  0.57776915     0.19800
F775        F  0.07247579  0.66173687  0.55578124    -0.13100
F776        F  0.10151229  0.69003627  0.61563867    -0.15500
F777        F  0.12080901  0.55297674  0.58742720    -0.15500
F778        F  0.15037368  0.58185070  0.64699064    -0.13100
C779        C  0.14127196  0.61534370  0.93625628     0.24900
C780        C  0.10576697  0.60776468  0.93583380    -0.23200
C781        C  0.08685275  0.61416059  0.90413133     0.19800
C782        C  0.10293017  0.62869518  0.87411088     0.24900
C783        C  0.13818150  0.63727208  0.87524968    -0.23100
C784        C  0.15704718  0.63030530  0.90668185     0.19800
F785        F  0.19108694  0.63791604  0.90895372    -0.13100
F786        F  0.16111196  0.60795722  0.96532108    -0.15500
F787        F  0.08362478  0.63582639  0.84459075    -0.15500
F788        F  0.05253051  0.60764428  0.90255584    -0.13100
C789        C  0.32100409  0.62189784  0.62270476     0.24900
C790        C  0.28535001  0.62799061  0.62374960    -0.23200
C791        C  0.26464639  0.61694387  0.59494691     0.19800
C792        C  0.27937102  0.60077532  0.56525677     0.24900
C793        C  0.31535666  0.59613706  0.56318255    -0.23100
C794        C  0.33595519  0.60657156  0.59252946     0.19800
F795        F  0.37076795  0.60361817  0.59134312    -0.13100
F796        F  0.34163335  0.63244767  0.65010869    -0.15500
F797        F  0.25826659  0.58949670  0.53857257    -0.15500
F798        F  0.22996257  0.62149171  0.59573055    -0.13100
C799        C  0.34225910  0.61223633  0.90552440     0.24900
C800        C  0.32107022  0.59408786  0.92933661    -0.23200
C801        C  0.28614586  0.58919415  0.92065666     0.19800
C802        C  0.27207473  0.60429864  0.89002578     0.24900
C803        C  0.29250548  0.62482592  0.86789014    -0.23100
C804        C  0.32803671  0.62747103  0.87481318     0.19800
F805        F  0.34858313  0.64591598  0.85273794    -0.13100
F806        F  0.37624315  0.61665590  0.91301132    -0.15500
F807        F  0.23851179  0.59865955  0.88163433    -0.15500
F808        F  0.26564809  0.56995912  0.94205114    -0.13100
C809        C  0.13266096  0.82709208  0.62918607     0.24900
C810        C  0.14042062  0.79188204  0.62795320    -0.23200
C811        C  0.13246373  0.77338731  0.59662002     0.19800
C812        C  0.11725660  0.78935493  0.56735491     0.24900
C813        C  0.11157736  0.82486896  0.56733973    -0.23100
C814        C  0.11845324  0.84355452  0.59898941     0.19800
F815        F  0.11274778  0.87778884  0.60030019    -0.13100
F816        F  0.14067513  0.84589985  0.65873131    -0.15500
F817        F  0.10817896  0.76979705  0.53867242    -0.15500
F818        F  0.13983083  0.73959403  0.59387662    -0.13100
C819        C  0.13869339  0.82552984  0.87460181     0.24900
C820        C  0.14534647  0.79008427  0.87493442    -0.23200
C821        C  0.13615223  0.77105153  0.90539217     0.19800
C822        C  0.12108920  0.78703427  0.93492897     0.24900
C823        C  0.11578962  0.82270492  0.93534000    -0.23100
C824        C  0.12468870  0.84178715  0.90482592     0.19800
F825        F  0.12141916  0.87636179  0.90493434    -0.13100
F826        F  0.14712763  0.84471356  0.84565911    -0.15500
F827        F  0.11155475  0.76742969  0.96321113    -0.15500
F828        F  0.14126656  0.73668945  0.90644208    -0.13100
C829        C  0.28900641  0.81012768  0.56510838     0.24900
C830        C  0.32492863  0.81505222  0.56410371    -0.23200
C831        C  0.34491322  0.80524973  0.59396371     0.19800
C832        C  0.32933987  0.79019652  0.62389483     0.24900
C833        C  0.29359632  0.78410002  0.62418484    -0.23100
C834        C  0.27357676  0.79459756  0.59464483     0.19800
F835        F  0.23884486  0.79026382  0.59454573    -0.13100
F836        F  0.26869680  0.82051705  0.53744148    -0.15500
F837        F  0.34942549  0.78019613  0.65187665    -0.15500
F838        F  0.37970356  0.80875969  0.59349682    -0.13100
C839        C  0.30534231  0.81889382  0.87224080     0.24900
C840        C  0.30199801  0.78312761  0.86997104    -0.23200
C841        C  0.31564424  0.76266680  0.89747908     0.19800
C842        C  0.33098120  0.77764485  0.92755715     0.24900
C843        C  0.33225920  0.81343244  0.93117927    -0.23100
C844        C  0.32015241  0.83400022  0.90282675     0.19800
F845        F  0.32100123  0.86863708  0.90553814    -0.13100
F846        F  0.29255085  0.83919823  0.84585629    -0.15500
F847        F  0.34439183  0.75712487  0.95342442    -0.15500
F848        F  0.31403917  0.72801046  0.89520183    -0.13100
C849        C  0.84403324  0.32852528  0.46620173     0.04400
C850        C  0.82889378  0.31741938  0.49822262    -0.11700
C851        C  0.83921478  0.32955201  0.03120082     0.01900
C852        C  0.86406585  0.35576317  0.03244048    -0.10200
C853        C  0.87883199  0.36803954  0.00060795     0.04400
C854        C  0.86922131  0.35425697  0.46757275    -0.09700
H855        H  0.80948829  0.29748077  0.49731494     0.10000
H856        H  0.87162940  0.36690655  0.05792166     0.07600
H857        H  0.88126960  0.36299202  0.44310023     0.07400
C858        C  0.60049592  0.33929085  0.46695226     0.04600
C859        C  0.57364640  0.36332899  0.46661015    -0.11700
C860        C  0.56026815  0.37611116  0.99838507     0.01900
C861        C  0.57298114  0.36437522  0.03157259    -0.10200
C862        C  0.59997790  0.34051010  0.03275301     0.04400
C863        C  0.61397350  0.32858158  0.50000306    -0.09700
H864        H  0.56289894  0.37199994  0.44134905     0.10000
H865        H  0.56108680  0.37304633  0.05617530     0.07600
H866        H  0.63564951  0.31113249  0.50026816     0.07400
C867        C  0.83312796  0.08132902  0.46503007     0.04400
C868        C  0.81822886  0.09246342  0.49716284    -0.11700
C869        C  0.83013173  0.08039740  0.03087764     0.01900
C870        C  0.85726359  0.05655190  0.03195045    -0.10200
C871        C  0.87288589  0.04540500  0.00008654     0.04400
C872        C  0.86063696  0.05814037  0.46616746    -0.09700
H873        H  0.79795795  0.11148491  0.49613034     0.10000
H874        H  0.86614346  0.04648114  0.05740995     0.07600
H875        H  0.87230544  0.04941748  0.44144891     0.07400
N876        N  0.96699182  0.40827855  0.99786962    -0.35300
N877        N  0.91153377  0.45861397  0.00259180    -0.55900
N878        N  0.96418038  0.01311927  0.99766460    -0.35300
N879        N  0.51956658  0.46327670  0.99685031    -0.55900
C880        C  0.93990465  0.38723233  0.00394825     0.28300
C881        C  0.99612149  0.38955926  0.00166847     0.28300
C882        C  0.93535733  0.03158380  0.00412446     0.28300
C883        C  0.99154815  0.03419803  0.00239850     0.28300
C884        C  0.89217292  0.43004456  0.99888161     0.36900
C885        C  0.88989646  0.48540814  0.99843394     0.36900
C886        C  0.54096466  0.43637055  0.99224887     0.36900
C887        C  0.53867150  0.49184295  0.99214977     0.36900
C888        C  0.95194618  0.35453189  0.01095174    -0.20600
C889        C  0.98731008  0.35597543  0.00948891    -0.20600
C890        C  0.94445817  0.06501081  0.01231160    -0.20600
C891        C  0.97981543  0.06666651  0.01128063    -0.20600
C892        C  0.85795284  0.43875097  0.99321465    -0.21600
C893        C  0.85651730  0.47379406  0.99291128    -0.21600
C894        C  0.57394169  0.44795216  0.98481878    -0.21600
C895        C  0.57250018  0.48303328  0.98480537    -0.21600
C896        C  0.90456116  0.39612936  0.00153559    -0.17000
C897        C  0.53192293  0.40160912  0.99735667    -0.17000
C898        C  0.52587813  0.02552876  0.99774630    -0.17000
C899        C  0.90097095  0.01967540  0.00107056    -0.17000
H900        H  0.93683160  0.33185769  0.01634965     0.15900
H901        H  0.00452092  0.33455759  0.01356621     0.15900
H902        H  0.92739789  0.08614131  0.01823602     0.15900
H903        H  0.49439771  0.08955887  0.01623087     0.15900
H904        H  0.83624589  0.42165968  0.98960130     0.14200
H905        H  0.83347592  0.48896266  0.98912271     0.14200
H906        H  0.59686341  0.43277093  0.98055901     0.14200
H907        H  0.59410114  0.50004206  0.98057887     0.14200
H908        H  0.96556162  0.43302027  0.98826981     0.27500
H909        H  0.96339453  0.48908073  0.98776206     0.27500
C910        C  0.58819772  0.09582504  0.46979498     0.04400
C911        C  0.56460244  0.06850165  0.46801748    -0.11700
C912        C  0.55173492  0.05354802  0.99920263     0.01900
C913        C  0.56207425  0.06693577  0.03252821    -0.10200
C914        C  0.58524656  0.09435945  0.03424280     0.04400
C915        C  0.59634411  0.10986515  0.50356728    -0.09700
H916        H  0.55800687  0.05702018  0.44243018     0.10000
H917        H  0.55167462  0.05633727  0.05702195     0.07600
H918        H  0.61370916  0.13150781  0.50555626     0.07400
O919        O  0.78955572  0.27571511  0.30803334    -0.74000
O920        O  0.76044762  0.24446060  0.34975068    -0.52900
C921        C  0.78292227  0.26691772  0.34059433     0.79700
O922        O  0.65102141  0.28283491  0.19027910    -0.58600
O923        O  0.67774193  0.24881873  0.14921620    -0.51600
C924        C  0.65721907  0.27322578  0.15782058     0.71800
O925        O  0.65608161  0.28461203  0.31163759    -0.73100
O926        O  0.68476952  0.25077055  0.35170463    -0.53700
C927        C  0.66381848  0.27516229  0.34376834     0.77800
O928        O  0.78697026  0.27267938  0.18647951    -0.58300
O929        O  0.75172477  0.24479478  0.14680753    -0.51400
C930        C  0.77618622  0.26585619  0.15449789     0.74400
Zr931      Zr  0.77144224  0.25708710  0.24780928     2.54700
O932        O  0.77609965  0.31914500  0.24627870    -0.78800
O933        O  0.83368349  0.24992043  0.24537415    -0.92300
Zr934      Zr  0.66925445  0.26524465  0.25074463     2.64700
O935        O  0.67777028  0.32698553  0.25018065    -0.97200
O936        O  0.60681303  0.26984183  0.25367146    -0.79300
O937        O  0.72154130  0.26186153  0.28392400    -0.82600
O938        O  0.71914632  0.26117378  0.21483309    -2.17300
O939        O  0.77822283  0.13748296  0.18695727    -0.66000
O940        O  0.74602238  0.16796641  0.14683912    -0.50600
C941        C  0.76835725  0.14485324  0.15483288     0.72700
O942        O  0.64486997  0.14746413  0.31339103    -0.58900
O943        O  0.67939937  0.17645235  0.35267476    -0.50900
C944        C  0.65491100  0.15535277  0.34539915     0.74500
O945        O  0.64058480  0.14580217  0.19239388    -0.70300
O946        O  0.67031886  0.17577134  0.15008641    -0.49000
C947        C  0.64719090  0.15414138  0.15975934     0.75900
O948        O  0.78191948  0.13668066  0.30755697    -0.65700
O949        O  0.75300859  0.16816749  0.34945344    -0.52900
C950        C  0.77413664  0.14444961  0.34007108     0.74300
Zr951      Zr  0.76374764  0.15549493  0.24801794     2.77500
O952        O  0.75734077  0.09353231  0.24873848    -0.96400
O953        O  0.82640841  0.15417009  0.24568951    -0.77200
Zr954      Zr  0.66085121  0.16321445  0.25200161     2.70100
O955        O  0.65515091  0.10121717  0.25251829    -0.78500
O956        O  0.59884009  0.17213470  0.25433381    -0.97600
Zr957      Zr  0.71870784  0.21031775  0.31751630     2.21500
Zr958      Zr  0.71354410  0.20920390  0.18174041     2.11100
O959        O  0.71085839  0.15802601  0.21588721    -2.46200
O960        O  0.71359402  0.15869679  0.28424813    -0.78300
O961        O  0.76688607  0.20605599  0.21319763    -0.70500
O962        O  0.66559554  0.21455465  0.28566561    -2.31400
O963        O  0.76966957  0.20632614  0.28255024    -2.27600
O964        O  0.66289962  0.21387966  0.21697284    -0.72200
H965        H  0.72009080  0.28073091  0.19904020     0.79800
H966        H  0.64638301  0.21625118  0.30190099     0.80900
H967        H  0.70871003  0.13821355  0.20045245     0.83100
H968        H  0.78988394  0.20490822  0.29763696     0.80700
H969        H  0.59822943  0.25074219  0.23859623     0.43700
H970        H  0.59273590  0.18196811  0.23071054     0.42700
H971        H  0.67875593  0.09278682  0.25735093     0.42400
H972        H  0.73972634  0.08854341  0.23015499     0.40300
H973        H  0.83253718  0.17214555  0.22817256     0.43400
H974        H  0.83908873  0.23304819  0.26430221     0.38200
H975        H  0.75398628  0.32735608  0.25619656     0.44300
H976        H  0.68654414  0.33220022  0.22592333     0.40800
H977        H  0.77910844  0.08474058  0.23853517     0.45700
H978        H  0.84310115  0.27181184  0.25462998     0.44400
H979        H  0.65418282  0.33659834  0.25041840     0.44500
H980        H  0.58893623  0.14877517  0.25381595     0.44900
C981        C  0.60577011  0.15712527  0.10866434     0.24900
C982        C  0.62723190  0.13748681  0.13090804    -0.23200
C983        C  0.63191214  0.10260401  0.12328949     0.19800
C984        C  0.61666920  0.08799951  0.09270264     0.24900
C985        C  0.59707196  0.10830225  0.06911765    -0.23100
C986        C  0.59122623  0.14282284  0.07767896     0.19800
F987        F  0.57180792  0.16275465  0.05571161    -0.13100
F988        F  0.59890562  0.19016865  0.11706589    -0.15500
F989        F  0.62265412  0.05457076  0.08499817    -0.15500
F990        F  0.65268962  0.08319985  0.14441115    -0.13100
C991        C  0.64042202  0.11815298  0.43783461     0.24900
C992        C  0.60518840  0.10944660  0.43694294    -0.23200
C993        C  0.58650614  0.11499473  0.40491880     0.19800
C994        C  0.60262966  0.12926929  0.37483170     0.24900
C995        C  0.63757226  0.13897354  0.37636775    -0.23100
C996        C  0.65606648  0.13350509  0.40840299     0.19800
F997        F  0.68962263  0.14290655  0.41141267    -0.13100
F998        F  0.66017101  0.11140020  0.46714096    -0.15500
F999        F  0.58356859  0.13510283  0.34483195    -0.15500
F1000       F  0.55230496  0.10789563  0.40304521    -0.13100
C1001       C  0.81982954  0.12103009  0.12308124     0.24900
C1002       C  0.78395219  0.12562354  0.12477718    -0.23200
C1003       C  0.76319603  0.11294618  0.09672404     0.19800
C1004       C  0.77809445  0.09668390  0.06713026     0.24900
C1005       C  0.81418188  0.09374838  0.06438292    -0.23100
C1006       C  0.83485881  0.10574267  0.09293881     0.19800
F1007       F  0.86973847  0.10441133  0.09085773    -0.13100
F1008       F  0.84052428  0.13307187  0.14973994    -0.15500
F1009       F  0.75717684  0.08380415  0.04108019    -0.15500
F1010       F  0.72838308  0.11609234  0.09810175    -0.13100
C1011       C  0.84028215  0.11234932  0.40662849     0.24900
C1012       C  0.81926826  0.09405036  0.43049980    -0.23200
C1013       C  0.78411843  0.08971345  0.42231819     0.19800
C1014       C  0.76989463  0.10476087  0.39170949     0.24900
C1015       C  0.79040966  0.12471732  0.36907683    -0.23100
C1016       C  0.82590164  0.12754984  0.37599564     0.19800
F1017       F  0.84623228  0.14634757  0.35402572    -0.13100
F1018       F  0.87423829  0.11708854  0.41402886    -0.15500
F1019       F  0.73605703  0.09980087  0.38399607    -0.15500
F1020       F  0.76349665  0.07117313  0.44425223    -0.13100
C1021       C  0.63188196  0.32610734  0.12880414     0.24900
C1022       C  0.63956588  0.29087701  0.12771491    -0.23200
C1023       C  0.63150740  0.27229519  0.09646072     0.19800
C1024       C  0.61657372  0.28828342  0.06700827     0.24900
C1025       C  0.61122746  0.32387642  0.06677898    -0.23100
C1026       C  0.61830600  0.34262797  0.09834111     0.19800
F1027       F  0.61354018  0.37701307  0.09927966    -0.13100
F1028       F  0.63914023  0.34485417  0.15859919    -0.15500
F1029       F  0.60746473  0.26866305  0.03838138    -0.15500
F1030       F  0.63836857  0.23836989  0.09405245    -0.13100
C1031       C  0.64055132  0.32788280  0.37455254     0.24900
C1032       C  0.64624399  0.29228820  0.37400416    -0.23200
C1033       C  0.63439628  0.27240178  0.40273158     0.19800
C1034       C  0.61781308  0.28767023  0.43169501     0.24900
C1035       C  0.61391942  0.32345172  0.43350894    -0.23100
C1036       C  0.62498495  0.34343294  0.40438310     0.19800
F1037       F  0.62212261  0.37802967  0.40547820    -0.13100
F1038       F  0.65126763  0.34772169  0.34693797    -0.15500
F1039       F  0.60542058  0.26729095  0.45810064    -0.15500
F1040       F  0.63826686  0.23786142  0.40246699    -0.13100
C1041       C  0.78716001  0.31097547  0.06570663     0.24900
C1042       C  0.82308596  0.31589203  0.06431517    -0.23200
C1043       C  0.84337824  0.30578221  0.09385215     0.19800
C1044       C  0.82811232  0.29041262  0.12376578     0.24900
C1045       C  0.79243364  0.28402703  0.12422451    -0.23100
C1046       C  0.77206825  0.29500024  0.09516311     0.19800
F1047       F  0.73731432  0.29086916  0.09556564    -0.13100
F1048       F  0.76650797  0.32179788  0.03850427    -0.15500
F1049       F  0.84841174  0.28055710  0.15163996    -0.15500
F1050       F  0.87816200  0.30928240  0.09308619    -0.13100
C1051       C  0.80673770  0.31880718  0.37225878     0.24900
C1052       C  0.80257541  0.28309661  0.37012251    -0.23200
C1053       C  0.81524864  0.26254249  0.39807427     0.19800
C1054       C  0.83040581  0.27734143  0.42835405     0.24900
C1055       C  0.83276957  0.31311363  0.43165359    -0.23100
C1056       C  0.82164238  0.33374507  0.40291158     0.19800
F1057       F  0.82334980  0.36837354  0.40536873    -0.13100
F1058       F  0.79448272  0.33930591  0.34577211    -0.15500
F1059       F  0.84240737  0.25662561  0.45478873    -0.15500
F1060       F  0.81266172  0.22792834  0.39615755    -0.13100
C1061       C  0.84385504  0.32819418  0.96588687     0.04400
C1062       C  0.82952370  0.31591705  0.99779896    -0.11700
C1063       C  0.83849936  0.33158486  0.53140909     0.01900
C1064       C  0.86358857  0.35749529  0.53239851    -0.10200
C1065       C  0.87898569  0.36880375  0.50055797     0.04400
C1066       C  0.86853069  0.35433171  0.96744216    -0.09700
H1067       H  0.81062624  0.29551544  0.99656536     0.10000
H1068       H  0.87097664  0.36903675  0.55774612     0.07600
H1069       H  0.87990340  0.36389838  0.94295498     0.07400
C1070       C  0.60118572  0.33950552  0.96713532     0.04600
C1071       C  0.57394510  0.36311950  0.96624391    -0.11700
C1072       C  0.56006578  0.37566312  0.49907001     0.01900
C1073       C  0.57258653  0.36309151  0.53193710    -0.10200
C1074       C  0.59925661  0.33889274  0.53259325     0.04400
C1075       C  0.61494820  0.32986535  0.00040692    -0.09700
H1076       H  0.56297272  0.37097002  0.94079176     0.10000
H1077       H  0.56078973  0.37145103  0.55670743     0.07600
H1078       H  0.63683165  0.31267412  0.00109226     0.07400
C1079       C  0.83372988  0.08106304  0.96540193     0.04400
C1080       C  0.81863007  0.09242267  0.99739509    -0.11700
C1081       C  0.82971757  0.08002033  0.53044524     0.01900
C1082       C  0.85678722  0.05605950  0.53115178    -0.10200
C1083       C  0.87250345  0.04539463  0.49914387     0.04400
C1084       C  0.86112098  0.05777798  0.96692782    -0.09700
H1085       H  0.79822720  0.11129417  0.99613577     0.10000
H1086       H  0.86562972  0.04559476  0.55644510     0.07600
H1087       H  0.87283956  0.04873517  0.94235883     0.07400
N1088       N  0.96730905  0.40810551  0.49839983    -0.35300
N1089       N  0.91219567  0.45912974  0.50192767    -0.55900
N1090       N  0.96397048  0.01318245  0.49713681    -0.35300
N1091       N  0.51975027  0.46306701  0.49810737    -0.55900
C1092       C  0.93999631  0.38776593  0.50565530     0.28300
C1093       C  0.99623154  0.38934221  0.50363073     0.28300
C1094       C  0.93507240  0.03156677  0.50356560     0.28300
C1095       C  0.99131430  0.03420841  0.50238200     0.28300
C1096       C  0.89283516  0.43066824  0.49743853     0.36900
C1097       C  0.89089986  0.48606458  0.49678873     0.36900
C1098       C  0.54130201  0.43613750  0.49457576     0.36900
C1099       C  0.53909506  0.49157233  0.49415992     0.36900
C1100       C  0.95164919  0.35550195  0.51518029    -0.20600
C1101       C  0.98705662  0.35648764  0.51392530    -0.20600
C1102       C  0.94412227  0.06487369  0.51233452    -0.20600
C1103       C  0.97950754  0.06654665  0.51162907    -0.20600
C1104       C  0.85893281  0.43958234  0.49018514    -0.21600
C1105       C  0.85771181  0.47466272  0.48978146    -0.21600
C1106       C  0.57462249  0.44764412  0.48883625    -0.21600
C1107       C  0.57324032  0.48269922  0.48865263    -0.21600
C1108       C  0.90484723  0.39672763  0.50141225    -0.17000
C1109       C  0.53196615  0.40135057  0.49871469    -0.17000
C1110       C  0.52444451  0.02692663  0.49729066    -0.17000
C1111       C  0.90069516  0.01971685  0.49984211    -0.17000
H1112       H  0.93624357  0.33334324  0.52184853     0.15900
H1113       H  0.00401557  0.33515960  0.51941247     0.15900
H1114       H  0.92700818  0.08592975  0.51837138     0.15900
H1115       H  0.49203745  0.09034404  0.51624598     0.15900
H1116       H  0.83727670  0.42260066  0.48574551     0.14200
H1117       H  0.83495183  0.48999127  0.48497275     0.14200
H1118       H  0.59769123  0.43242134  0.48571651     0.14200
H1119       H  0.59503969  0.49966398  0.48538395     0.14200
H1120       H  0.96603010  0.43200828  0.48653608     0.27500
H1121       H  0.96407040  0.48878131  0.48637704     0.27500
C1122       C  0.58980460  0.09381735  0.96884711     0.04400
C1123       C  0.56599154  0.06665445  0.96747867    -0.11700
C1124       C  0.54998381  0.05518861  0.49943586     0.01900
C1125       C  0.55986783  0.06841593  0.53299405    -0.10200
C1126       C  0.58304830  0.09582478  0.53512978     0.04400
C1127       C  0.59826491  0.10814147  0.00242510    -0.09700
H1128       H  0.55900491  0.05515067  0.94200735     0.10000
H1129       H  0.54929671  0.05758889  0.55729823     0.07600
H1130       H  0.61572093  0.12974427  0.00403025     0.07400
O1131       O  0.78984955  0.27578292  0.80770703    -0.74000
O1132       O  0.76072795  0.24469592  0.84958604    -0.52900
C1133       C  0.78327729  0.26703286  0.84025860     0.79700
O1134       O  0.64973054  0.28101475  0.69025080    -0.58600
O1135       O  0.67818708  0.24842784  0.64917827    -0.51600
C1136       C  0.65673989  0.27201397  0.65776442     0.71800
O1137       O  0.65508039  0.28261585  0.81187112    -0.73100
O1138       O  0.68377400  0.24874392  0.85190137    -0.53700
C1139       C  0.66265737  0.27302084  0.84401513     0.77800
O1140       O  0.78720714  0.27307972  0.68629731    -0.58300
O1141       O  0.75163176  0.24573367  0.64654990    -0.51400
C1142       C  0.77620700  0.26666065  0.65428453     0.74400
Zr1143     Zr  0.77131564  0.25754048  0.74766720     2.54700
O1144       O  0.77451685  0.31971415  0.74628802    -0.78800
O1145       O  0.83374823  0.25175685  0.74633183    -0.92300
Zr1146     Zr  0.66880116  0.26411014  0.75075359     2.64700
O1147       O  0.67634305  0.32596438  0.74937927    -0.97200
O1148       O  0.60639911  0.26901504  0.75486807    -0.79300
O1149       O  0.72127019  0.26146666  0.78388108    -0.82600
O1150       O  0.71889880  0.26112059  0.71489824    -2.17300
O1151       O  0.77938157  0.13769566  0.68683571    -0.66000
O1152       O  0.74731732  0.16840397  0.64677658    -0.50600
C1153       C  0.76948456  0.14512526  0.65474506     0.72700
O1154       O  0.64725143  0.14535938  0.81289202    -0.58900
O1155       O  0.68136085  0.17438142  0.85256847    -0.50900
C1156       C  0.65723189  0.15297190  0.84496557     0.74500
O1157       O  0.64137832  0.14575044  0.69206704    -0.70300
O1158       O  0.67127840  0.17570897  0.64985825    -0.49000
C1159       C  0.64796728  0.15426076  0.65948979     0.75900
O1160       O  0.78330966  0.13658147  0.80733922    -0.65700
O1161       O  0.75491608  0.16834997  0.84935259    -0.52900
C1162       C  0.77593098  0.14451531  0.83989613     0.74300
Zr1163     Zr  0.76514262  0.15569754  0.74790685     2.77500
O1164       O  0.75944835  0.09364844  0.74847895    -0.96400
O1165       O  0.82782072  0.15363951  0.74746662    -0.77200
Zr1166     Zr  0.66237168  0.16199059  0.75166781     2.70100
O1167       O  0.65828543  0.09985069  0.75058565    -0.78500
O1168       O  0.60032060  0.16928814  0.75671412    -0.97600
Zr1169     Zr  0.71938589  0.20977919  0.81751204     2.21500
Zr1170     Zr  0.71435477  0.20919028  0.68165476     2.11100
O1171       O  0.71236658  0.15775451  0.71552666    -2.46200
O1172       O  0.71500992  0.15813288  0.78413851    -0.78300
O1173       O  0.76781998  0.20642841  0.71307673    -0.70500
O1174       O  0.66625797  0.21322735  0.78546790    -2.31400
O1175       O  0.77025011  0.20667006  0.78230704    -2.27600
O1176       O  0.66344146  0.21277764  0.71674287    -0.72200
H1177       H  0.71957366  0.28071070  0.69913305     0.79800
H1178       H  0.64699021  0.21441305  0.80168201     0.80900
H1179       H  0.71041217  0.13799970  0.69998148     0.83100
H1180       H  0.79052433  0.20550250  0.79733351     0.80700
H1181       H  0.59812231  0.24512391  0.75663969     0.43700
H1182       H  0.59331122  0.18066469  0.73415346     0.42700
H1183       H  0.67881629  0.09200378  0.76410821     0.42400
H1184       H  0.74305236  0.08833548  0.72881363     0.40300
H1185       H  0.83472547  0.17312586  0.73218332     0.43400
H1186       H  0.83978895  0.23978954  0.76884505     0.38200
H1187       H  0.75226036  0.32740826  0.75630855     0.44300
H1188       H  0.68840820  0.33062479  0.72658677     0.40800
H1189       H  0.78192609  0.08510333  0.73981175     0.45700
H1190       H  0.84248945  0.27536177  0.74982207     0.44400
H1191       H  0.65282152  0.33509138  0.74557596     0.44500
H1192       H  0.59087000  0.14581356  0.75466288     0.44900
C1193       C  0.60497426  0.15770898  0.60983673     0.24900
C1194       C  0.62761600  0.13803127  0.63074172    -0.23200
C1195       C  0.63250862  0.10336075  0.62233561     0.19800
C1196       C  0.61585123  0.08885554  0.59253607     0.24900
C1197       C  0.59513984  0.10922861  0.57010106    -0.23100
C1198       C  0.58937713  0.14362514  0.57928765     0.19800
F1199       F  0.56915089  0.16367116  0.55824224    -0.13100
F1200       F  0.59807829  0.19056909  0.61903472    -0.15500
F1201       F  0.62157271  0.05548992  0.58433866    -0.15500
F1202       F  0.65484366  0.08411865  0.64183845    -0.13100
C1203       C  0.64246682  0.11448450  0.93667479     0.24900
C1204       C  0.60699773  0.10681869  0.93586213    -0.23200
C1205       C  0.58837070  0.11301372  0.90394058     0.19800
C1206       C  0.60476628  0.12721904  0.87398068     0.24900
C1207       C  0.63993190  0.13603938  0.87554090    -0.23100
C1208       C  0.65844053  0.12959055  0.90731696     0.19800
F1209       F  0.69218768  0.13818206  0.91029060    -0.13100
F1210       F  0.66200680  0.10729525  0.96601480    -0.15500
F1211       F  0.58576397  0.13412265  0.84418767    -0.15500
F1212       F  0.55398611  0.10685422  0.90215242    -0.13100
C1213       C  0.82029140  0.11962371  0.62320261     0.24900
C1214       C  0.78461601  0.12558321  0.62468655    -0.23200
C1215       C  0.76355086  0.11384526  0.59644930     0.19800
C1216       C  0.77799471  0.09742856  0.56673165     0.24900
C1217       C  0.81399436  0.09328887  0.56410843    -0.23100
C1218       C  0.83492449  0.10423374  0.59292422     0.19800
F1219       F  0.86975465  0.10194291  0.59092784    -0.13100
F1220       F  0.84125634  0.13040932  0.65021577    -0.15500
F1221       F  0.75669933  0.08571923  0.54040671    -0.15500
F1222       F  0.72884334  0.11803095  0.59779036    -0.13100
C1223       C  0.84176029  0.11134703  0.90658344     0.24900
C1224       C  0.82031218  0.09366846  0.93059140    -0.23200
C1225       C  0.78524543  0.08951231  0.92202161     0.19800
C1226       C  0.77148899  0.10436622  0.89108245     0.24900
C1227       C  0.79217262  0.12450836  0.86883052    -0.23100
C1228       C  0.82772187  0.12673447  0.87582511     0.19800
F1229       F  0.84852154  0.14476094  0.85362721    -0.13100
F1230       F  0.87585551  0.11517928  0.91388069    -0.15500
F1231       F  0.73801924  0.09866352  0.88238092    -0.15500
F1232       F  0.76427755  0.07117986  0.94378415    -0.13100
C1233       C  0.63129851  0.32461664  0.62851642     0.24900
C1234       C  0.63910144  0.28943806  0.62753571    -0.23200
C1235       C  0.63161345  0.27081360  0.59614128     0.19800
C1236       C  0.61665590  0.28666291  0.56659315     0.24900
C1237       C  0.61077121  0.32218050  0.56646425    -0.23100
C1238       C  0.61758436  0.34097413  0.59806565     0.19800
F1239       F  0.61248520  0.37531203  0.59904935    -0.13100
F1240       F  0.63885923  0.34354633  0.65809993    -0.15500
F1241       F  0.60799224  0.26698297  0.53785588    -0.15500
F1242       F  0.63920191  0.23703329  0.59365950    -0.13100
C1243       C  0.63956478  0.32602866  0.87426917     0.24900
C1244       C  0.64531783  0.29043307  0.87430985    -0.23200
C1245       C  0.63445566  0.27116594  0.90394357     0.19800
C1246       C  0.61883839  0.28708406  0.93316490     0.24900
C1247       C  0.61451348  0.32286593  0.93405045    -0.23100
C1248       C  0.62459378  0.34216569  0.90407071     0.19800
F1249       F  0.62130638  0.37673786  0.90423610    -0.13100
F1250       F  0.64975180  0.34537851  0.84606651    -0.15500
F1251       F  0.60765222  0.26731035  0.96063666    -0.15500
F1252       F  0.63838978  0.23663788  0.90439623    -0.13100
C1253       C  0.78657058  0.31432067  0.56671168     0.24900
C1254       C  0.82253978  0.31829384  0.56469728    -0.23200
C1255       C  0.84313558  0.30697009  0.59347281     0.19800
C1256       C  0.82812528  0.29079269  0.62305672     0.24900
C1257       C  0.79230828  0.28522116  0.62410743    -0.23100
C1258       C  0.77165721  0.29763032  0.59587419     0.19800
F1259       F  0.73685948  0.29407306  0.59675934    -0.13100
F1260       F  0.76579192  0.32674913  0.54038270    -0.15500
F1261       F  0.84878808  0.27922423  0.64988503    -0.15500
F1262       F  0.87794250  0.31013502  0.59220285    -0.13100
C1263       C  0.80526520  0.31907691  0.87259813     0.24900
C1264       C  0.80309115  0.28328092  0.86951015    -0.23200
C1265       C  0.81770829  0.26268759  0.89636575     0.19800
C1266       C  0.83252191  0.27750121  0.92681466     0.24900
C1267       C  0.83265550  0.31321765  0.93122302    -0.23100
C1268       C  0.81964631  0.33399492  0.90348996     0.19800
F1269       F  0.81889241  0.36854869  0.90728186    -0.13100
F1270       F  0.79161093  0.33950385  0.84679594    -0.15500
F1271       F  0.84619549  0.25687873  0.95244834    -0.15500
F1272       F  0.81735372  0.22806759  0.89319803    -0.13100
C1273       C  0.84628974  0.82664752  0.46633064     0.04400
C1274       C  0.83083178  0.81600716  0.49837136    -0.11700
C1275       C  0.84005881  0.83060371  0.03136910     0.01900
C1276       C  0.86523980  0.85644526  0.03233158    -0.10200
C1277       C  0.88109270  0.86732708  0.00056673     0.04400
C1278       C  0.87160008  0.85229034  0.46758888    -0.09700
H1279       H  0.81132567  0.79616645  0.49756121     0.10000
H1280       H  0.87225730  0.86838097  0.05758896     0.07600
H1281       H  0.88379847  0.86074580  0.44309136     0.07400
C1282       C  0.60120484  0.84037039  0.46892588     0.04600
C1283       C  0.57427615  0.86436219  0.46737084    -0.11700
C1284       C  0.55919591  0.87586593  0.99907750     0.01900
C1285       C  0.57115341  0.86437659  0.03256624    -0.10200
C1286       C  0.59738182  0.83987660  0.03446352     0.04400
C1287       C  0.61407707  0.83058484  0.50257874    -0.09700
H1288       H  0.56372272  0.87205744  0.44168002     0.10000
H1289       H  0.55922892  0.87367644  0.05691757     0.07600
H1290       H  0.63539167  0.81273998  0.50403683     0.07400
C1291       C  0.83561730  0.58394256  0.46310087     0.04400
C1292       C  0.82123968  0.59684474  0.49468611    -0.11700
C1293       C  0.83046690  0.58409347  0.02834769     0.01900
C1294       C  0.85642939  0.55902649  0.03030371    -0.10200
C1295       C  0.87164230  0.54624761  0.99889220     0.04400
C1296       C  0.86186268  0.55948031  0.46498528    -0.09700
H1297       H  0.80187887  0.61672505  0.49280200     0.10000
H1298       H  0.86482699  0.54937215  0.05610906     0.07600
H1299       H  0.87320507  0.54965186  0.44055252     0.07400
N1300       N  0.96906777  0.90795087  0.99854979    -0.35300
N1301       N  0.91343358  0.95806198  0.00246182    -0.55900
N1302       N  0.96269108  0.51351196  0.99843710    -0.35300
N1303       N  0.51874694  0.96308225  0.99702822    -0.55900
C1304       C  0.94206595  0.88682262  0.00457676     0.28300
C1305       C  0.99828479  0.88946538  0.00281372     0.28300
C1306       C  0.93383084  0.53203255  0.00453921     0.28300
C1307       C  0.99007288  0.53459508  0.00326114     0.28300
C1308       C  0.89419104  0.92939611  0.99883593     0.36900
C1309       C  0.89163074  0.98476534  0.99856289     0.36900
C1310       C  0.54023852  0.93619879  0.99284873     0.36900
C1311       C  0.53800040  0.99165761  0.99316897     0.36900
C1312       C  0.95424560  0.85430267  0.01224965    -0.20600
C1313       C  0.98964310  0.85596106  0.01116871    -0.20600
C1314       C  0.94293547  0.56546168  0.01274087    -0.20600
C1315       C  0.97830517  0.56708477  0.01195911    -0.20600
C1316       C  0.85989391  0.93796279  0.99346125    -0.21600
C1317       C  0.85827578  0.97299599  0.99329408    -0.21600
C1318       C  0.57345678  0.94777901  0.98663723    -0.21600
C1319       C  0.57205131  0.98286422  0.98690366    -0.21600
C1320       C  0.90672728  0.89550746  0.00143556    -0.17000
C1321       C  0.53098653  0.90145695  0.99748333    -0.17000
C1322       C  0.52672928  0.52569345  0.99731862    -0.17000
C1323       C  0.89942666  0.52026819  0.00088112    -0.17000
H1324       H  0.93919815  0.83159913  0.01772038     0.15900
H1325       H  0.00698507  0.83470218  0.01556343     0.15900
H1326       H  0.92587488  0.58664843  0.01843881     0.15900
H1327       H  0.49526499  0.58903059  0.01828981     0.15900
H1328       H  0.83823694  0.92078005  0.99002617     0.14200
H1329       H  0.83512680  0.98805580  0.98975312     0.14200
H1330       H  0.59648405  0.93258819  0.98304774     0.14200
H1331       H  0.59378730  0.99988890  0.98352407     0.14200
H1332       H  0.96751329  0.93249464  0.98840122     0.27500
H1333       H  0.96487833  0.98870109  0.98692280     0.27500
C1334       C  0.59188838  0.59261478  0.46837631     0.04400
C1335       C  0.56713625  0.56628278  0.46722304    -0.11700
C1336       C  0.55271424  0.55365226  0.99898697     0.01900
C1337       C  0.56353027  0.56659611  0.03237421    -0.10200
C1338       C  0.58734525  0.59350022  0.03409269     0.04400
C1339       C  0.60159722  0.60624274  0.50185882    -0.09700
H1340       H  0.55942290  0.55519310  0.44177084     0.10000
H1341       H  0.55317198  0.55597701  0.05687955     0.07600
H1342       H  0.61994974  0.62712006  0.50333642     0.07400
O1343       O  0.78940290  0.77724205  0.30791543    -0.74000
O1344       O  0.76066865  0.74522153  0.34927620    -0.52900
C1345       C  0.78318238  0.76774448  0.34032505     0.79700
O1346       O  0.64942591  0.78362886  0.19161690    -0.58600
O1347       O  0.67577723  0.75017196  0.14969327    -0.51600
C1348       C  0.65513442  0.77422371  0.15901031     0.71800
O1349       O  0.65432591  0.78373633  0.31296950    -0.73100
O1350       O  0.68302598  0.74927696  0.35237792    -0.53700
C1351       C  0.66199399  0.77379451  0.34498373     0.77800
O1352       O  0.78644879  0.77547416  0.18683137    -0.58300
O1353       O  0.75127020  0.74780197  0.14694031    -0.51400
C1354       C  0.77574119  0.76881701  0.15480032     0.74400
Zr1355     Zr  0.77062371  0.75924925  0.24783505     2.54700
O1356       O  0.77530514  0.82130426  0.24580764    -0.78800
O1357       O  0.83282998  0.75119072  0.24643302    -0.92300
Zr1358     Zr  0.66820345  0.76563485  0.25168032     2.64700
O1359       O  0.67609324  0.82742748  0.25284307    -0.97200
O1360       O  0.60571206  0.77063537  0.25333168    -0.79300
O1361       O  0.72080587  0.76286764  0.28442170    -0.82600
O1362       O  0.71799589  0.76304057  0.21528657    -2.17300
O1363       O  0.77985986  0.64155361  0.18474800    -0.66000
O1364       O  0.74629800  0.67163354  0.14551169    -0.50600
C1365       C  0.76944927  0.64914132  0.15280729     0.72700
O1366       O  0.64645483  0.64670975  0.31226241    -0.58900
O1367       O  0.68189495  0.67403302  0.35205142    -0.50900
C1368       C  0.65727346  0.65322187  0.34432399     0.74500
O1369       O  0.64210989  0.64604992  0.19146570    -0.70300
O1370       O  0.67134250  0.67666885  0.14928026    -0.49000
C1371       C  0.64877122  0.65443453  0.15889173     0.75900
O1372       O  0.78302076  0.63859792  0.30607733    -0.65700
O1373       O  0.75418186  0.66932733  0.34867269    -0.52900
C1374       C  0.77549221  0.64600907  0.33876757     0.74300
Zr1375     Zr  0.76486157  0.65764936  0.24650660     2.77500
O1376       O  0.75969481  0.59556568  0.24673910    -0.96400
O1377       O  0.82753942  0.65646044  0.24478339    -0.77200
Zr1378     Zr  0.66199287  0.66336202  0.25109657     2.70100
O1379       O  0.66032007  0.60113152  0.25024086    -0.78500
O1380       O  0.59957569  0.66906903  0.25323855    -0.97600
Zr1381     Zr  0.71882514  0.71081426  0.31727212     2.21500
Zr1382     Zr  0.71323419  0.71145817  0.18136205     2.11100
O1383       O  0.71185476  0.65971218  0.21463395    -2.46200
O1384       O  0.71484638  0.65964801  0.28303777    -0.78300
O1385       O  0.76683073  0.70873004  0.21240328    -0.70500
O1386       O  0.66551968  0.71429888  0.28566454    -2.31400
O1387       O  0.76966571  0.70807306  0.28184271    -2.27600
O1388       O  0.66271705  0.71465067  0.21703500    -0.72200
H1389       H  0.71856918  0.78279291  0.19973860     0.79800
H1390       H  0.64632656  0.71525356  0.30198676     0.80900
H1391       H  0.71011150  0.64005588  0.19892396     0.83100
H1392       H  0.79000321  0.70680545  0.29676433     0.80700
H1393       H  0.59800873  0.75068516  0.26749415     0.43700
H1394       H  0.59386762  0.68504683  0.23353759     0.42700
H1395       H  0.68431560  0.59413982  0.25554626     0.42400
H1396       H  0.74741058  0.58986834  0.22417210     0.40300
H1397       H  0.83390422  0.67659151  0.23016938     0.43400
H1398       H  0.83924953  0.74400826  0.27099229     0.38200
H1399       H  0.75935215  0.82949132  0.26458412     0.44300
H1400       H  0.68694885  0.83300167  0.22961955     0.40800
H1401       H  0.78348858  0.58722508  0.24300322     0.45700
H1402       H  0.84232785  0.77461727  0.24416666     0.44400
H1403       H  0.65246826  0.83679603  0.25088311     0.44500
H1404       H  0.59067525  0.64662922  0.24494995     0.44900
C1405       C  0.60376870  0.65432532  0.11111463     0.24900
C1406       C  0.62959618  0.63692618  0.13014247    -0.23200
C1407       C  0.63897774  0.60374008  0.11954831     0.19800
C1408       C  0.62387947  0.58883047  0.08909949     0.24900
C1409       C  0.59948764  0.60709938  0.06884486    -0.23100
C1410       C  0.58923763  0.63978625  0.08023406     0.19800
F1411       F  0.56582534  0.65789229  0.06089754    -0.13100
F1412       F  0.59278714  0.68542621  0.12242436    -0.15500
F1413       F  0.63443438  0.55740244  0.07817845    -0.15500
F1414       F  0.66379414  0.58644993  0.13778305    -0.13100
C1415       C  0.64435387  0.61146304  0.43473628     0.24900
C1416       C  0.60853434  0.60567633  0.43518375    -0.23200
C1417       C  0.58903356  0.61382383  0.40436808     0.19800
C1418       C  0.60490274  0.62846357  0.37435044     0.24900
C1419       C  0.64045750  0.63563457  0.37475587    -0.23100
C1420       C  0.65996920  0.62670316  0.40519871     0.19800
F1421       F  0.69442433  0.63252765  0.40639910    -0.13100
F1422       F  0.66452218  0.60208159  0.46291009    -0.15500
F1423       F  0.58518596  0.63709460  0.34558467    -0.15500
F1424       F  0.55440442  0.60898101  0.40375906    -0.13100
C1425       C  0.82083755  0.62555031  0.12034326     0.24900
C1426       C  0.78503867  0.63080130  0.12204932    -0.23200
C1427       C  0.76420298  0.61936479  0.09343391     0.19800
C1428       C  0.77884778  0.60318841  0.06366766     0.24900
C1429       C  0.81479962  0.59880810  0.06137194    -0.23100
C1430       C  0.83561364  0.60996931  0.09020021     0.19800
F1431       F  0.87042913  0.60712211  0.08860534    -0.13100
F1432       F  0.84172747  0.63697686  0.14712634    -0.15500
F1433       F  0.75773291  0.59136500  0.03723877    -0.15500
F1434       F  0.72947084  0.62336831  0.09452355    -0.13100
C1435       C  0.84138563  0.61959372  0.40796905     0.24900
C1436       C  0.82235136  0.59612662  0.42830656    -0.23200
C1437       C  0.78900678  0.58686987  0.41709693     0.19800
C1438       C  0.77450909  0.60161642  0.38641250     0.24900
C1439       C  0.79272563  0.62663250  0.36735867    -0.23100
C1440       C  0.82644224  0.63513755  0.37788443     0.19800
F1441       F  0.84414148  0.65972156  0.36009156    -0.13100
F1442       F  0.87363877  0.62880814  0.41843432    -0.15500
F1443       F  0.74249192  0.59196723  0.37561096    -0.15500
F1444       F  0.77024297  0.56421868  0.43647476    -0.13100
C1445       C  0.63301290  0.82752291  0.12880327     0.24900
C1446       C  0.63661592  0.79169694  0.12960161    -0.23200
C1447       C  0.62427528  0.77226145  0.10052968     0.19800
C1448       C  0.60938731  0.78809613  0.07093911     0.24900
C1449       C  0.60772475  0.82393749  0.06889844    -0.23100
C1450       C  0.61860909  0.84359623  0.09856701     0.19800
F1451       F  0.61710585  0.87827050  0.09747562    -0.13100
F1452       F  0.64567488  0.84701658  0.15602887    -0.15500
F1453       F  0.59727976  0.76827452  0.04366996    -0.15500
F1454       F  0.62750861  0.73774905  0.10023920    -0.13100
C1455       C  0.63911140  0.82678488  0.37576485     0.24900
C1456       C  0.64505219  0.79119224  0.37569295    -0.23200
C1457       C  0.63504523  0.77201210  0.40575046     0.19800
C1458       C  0.61977958  0.78790667  0.43523883     0.24900
C1459       C  0.61495161  0.82363717  0.43600881    -0.23100
C1460       C  0.62453325  0.84289668  0.40580788     0.19800
F1461       F  0.62121776  0.87747368  0.40599081    -0.13100
F1462       F  0.64886548  0.84623638  0.34747522    -0.15500
F1463       F  0.60942259  0.76811227  0.46305443    -0.15500
F1464       F  0.63958692  0.73757159  0.40645873    -0.13100
C1465       C  0.78747012  0.81344602  0.06584809     0.24900
C1466       C  0.82344782  0.81796534  0.06461394    -0.23200
C1467       C  0.84349670  0.80804014  0.09437842     0.19800
C1468       C  0.82798674  0.79295025  0.12428484     0.24900
C1469       C  0.79222735  0.78698153  0.12466005    -0.23100
C1470       C  0.77207795  0.79803880  0.09547545     0.19800
F1471       F  0.73728247  0.79431024  0.09582717    -0.13100
F1472       F  0.76710684  0.82387583  0.03824189    -0.15500
F1473       F  0.84816194  0.78272935  0.15210810    -0.15500
F1474       F  0.87831916  0.81122528  0.09373294    -0.13100
C1475       C  0.80848381  0.81861962  0.37248268     0.24900
C1476       C  0.80348046  0.78306278  0.36989449    -0.23200
C1477       C  0.81587403  0.76187556  0.39747778     0.19800
C1478       C  0.83142935  0.77596457  0.42794892     0.24900
C1479       C  0.83460704  0.81164979  0.43170205    -0.23100
C1480       C  0.82368540  0.83284327  0.40332375     0.19800
F1481       F  0.82553323  0.86740992  0.40649842    -0.13100
F1482       F  0.79655408  0.83972314  0.34636527    -0.15500
F1483       F  0.84272947  0.75467193  0.45420648    -0.15500
F1484       F  0.81241239  0.72735810  0.39511120    -0.13100
C1485       C  0.84629980  0.82681578  0.96629250     0.04400
C1486       C  0.83084061  0.81607819  0.99826385    -0.11700
C1487       C  0.83995869  0.83088065  0.53139505     0.01900
C1488       C  0.86511347  0.85676018  0.53219780    -0.10200
C1489       C  0.88102048  0.86740409  0.50038518     0.04400
C1490       C  0.87159779  0.85247449  0.96763004    -0.09700
H1491       H  0.81135325  0.79622788  0.99734881     0.10000
H1492       H  0.87203804  0.86892451  0.55736560     0.07600
H1493       H  0.88380442  0.86102252  0.94317151     0.07400
C1494       C  0.60010858  0.83817990  0.96894473     0.04600
C1495       C  0.57336011  0.86242982  0.96733073    -0.11700
C1496       C  0.56014587  0.87776834  0.49909564     0.01900
C1497       C  0.57235914  0.86637612  0.53262396    -0.10200
C1498       C  0.59890121  0.84206201  0.53447538     0.04400
C1499       C  0.61259597  0.82819156  0.00268472    -0.09700
H1500       H  0.56306194  0.87039604  0.94162689     0.10000
H1501       H  0.56033656  0.87548447  0.55699489     0.07600
H1502       H  0.63386907  0.81031735  0.00434385     0.07400
C1503       C  0.83433099  0.58257647  0.96302355     0.04400
C1504       C  0.81970108  0.59568005  0.99444172    -0.11700
C1505       C  0.83189025  0.58478077  0.52841888     0.01900
C1506       C  0.85781264  0.55958090  0.53001351    -0.10200
C1507       C  0.87303840  0.54716708  0.49838772     0.04400
C1508       C  0.86047672  0.55804879  0.96529356    -0.09700
H1509       H  0.80021438  0.61542364  0.99235038     0.10000
H1510       H  0.86610816  0.54948541  0.55566317     0.07600
H1511       H  0.87197903  0.54801183  0.94103139     0.07400
N1512       N  0.96889575  0.90814099  0.49771672    -0.35300
N1513       N  0.91320862  0.95816160  0.50143372    -0.55900
N1514       N  0.96368718  0.51307507  0.49750950    -0.35300
N1515       N  0.51816954  0.96439303  0.49628186    -0.55900
C1516       C  0.94193480  0.88711941  0.50435348     0.28300
C1517       C  0.99812132  0.88974603  0.50232754     0.28300
C1518       C  0.93513777  0.53200931  0.50387502     0.28300
C1519       C  0.99139177  0.53359223  0.50276893     0.28300
C1520       C  0.89409900  0.92945866  0.49741827     0.36900
C1521       C  0.89149033  0.98481577  0.49674885     0.36900
C1522       C  0.54014421  0.93781475  0.49258445     0.36900
C1523       C  0.53702951  0.99324274  0.49258804     0.36900
C1524       C  0.95415230  0.85477711  0.51271509    -0.20600
C1525       C  0.98952582  0.85640506  0.51138638    -0.20600
C1526       C  0.94476716  0.56515662  0.51260807    -0.20600
C1527       C  0.98015870  0.56615746  0.51199119    -0.20600
C1528       C  0.85996635  0.93793640  0.49086731    -0.21600
C1529       C  0.85831708  0.97297779  0.49043788    -0.21600
C1530       C  0.57321919  0.94988768  0.48662930    -0.21600
C1531       C  0.57126685  0.98493711  0.48672055    -0.21600
C1532       C  0.90659538  0.89565134  0.50094366    -0.17000
C1533       C  0.53145819  0.90290918  0.49723341    -0.17000
C1534       C  0.52695392  0.52551417  0.49786534    -0.17000
C1535       C  0.90059402  0.52082851  0.49991484    -0.17000
H1536       H  0.93914057  0.83218948  0.51876227     0.15900
H1537       H  0.00687582  0.83523474  0.51618020     0.15900
H1538       H  0.92804776  0.58656469  0.51849000     0.15900
H1539       H  0.49542637  0.58941906  0.51650551     0.15900
H1540       H  0.83844153  0.92069188  0.48688313     0.14200
H1541       H  0.83525838  0.98799595  0.48613132     0.14200
H1542       H  0.59651740  0.93504558  0.48335436     0.14200
H1543       H  0.59279379  0.00226342  0.48359064     0.14200
H1544       H  0.96732169  0.93245854  0.48691709     0.27500
H1545       H  0.96475592  0.98889955  0.48602058     0.27500
C1546       C  0.59143385  0.59346912  0.96882339     0.04400
C1547       C  0.56691660  0.56694447  0.96731387    -0.11700
C1548       C  0.55292915  0.55343682  0.49910159     0.01900
C1549       C  0.56406759  0.56643431  0.53232650    -0.10200
C1550       C  0.58831484  0.59292236  0.53369575     0.04400
C1551       C  0.60075648  0.60709050  0.00240493    -0.09700
H1552       H  0.55939084  0.55607782  0.94169319     0.10000
H1553       H  0.55377417  0.55604619  0.55696877     0.07600
H1554       H  0.61902578  0.62803699  0.00403535     0.07400
O1555       O  0.78898591  0.77629386  0.80894343    -0.74000
O1556       O  0.76038426  0.74392878  0.85009272    -0.52900
C1557       C  0.78275552  0.76658348  0.84131485     0.79700
O1558       O  0.64887070  0.78317000  0.69187240    -0.58600
O1559       O  0.67569915  0.75037790  0.64970446    -0.51600
C1560       C  0.65475171  0.77416068  0.65917031     0.71800
O1561       O  0.65446642  0.78264318  0.81316777    -0.73100
O1562       O  0.68403201  0.74861902  0.85229925    -0.53700
C1563       C  0.66262700  0.77284123  0.84510744     0.77800
O1564       O  0.78627758  0.77618035  0.68704170    -0.58300
O1565       O  0.75093121  0.74904329  0.64690467    -0.51400
C1566       C  0.77539828  0.76995630  0.65496016     0.74400
Zr1567     Zr  0.77057400  0.75978961  0.74811456     2.54700
O1568       O  0.77099640  0.82207007  0.74637786    -0.78800
O1569       O  0.83320610  0.75593691  0.74612461    -0.92300
Zr1570     Zr  0.66835004  0.76510880  0.75172566     2.64700
O1571       O  0.67728505  0.82679720  0.75238560    -0.97200
O1572       O  0.60594254  0.77002050  0.75452936    -0.79300
O1573       O  0.72079732  0.76244890  0.78471728    -0.82600
O1574       O  0.71810778  0.76316865  0.71533474    -2.17300
O1575       O  0.78023380  0.64183567  0.68433879    -0.66000
O1576       O  0.74823991  0.67344559  0.64505179    -0.50600
C1577       C  0.77067602  0.65027254  0.65239672     0.72700
O1578       O  0.64737809  0.64583903  0.81219621    -0.58900
O1579       O  0.68238080  0.67354822  0.85209875    -0.50900
C1580       C  0.65788997  0.65260890  0.84437298     0.74500
O1581       O  0.64284142  0.64649395  0.69055772    -0.70300
O1582       O  0.67288237  0.67662273  0.64857026    -0.49000
C1583       C  0.65000013  0.65468093  0.65800053     0.75900
O1584       O  0.78336342  0.63797034  0.80552587    -0.65700
O1585       O  0.75556522  0.66941019  0.84825795    -0.52900
C1586       C  0.77645731  0.64579285  0.83826026     0.74300
Zr1587     Zr  0.76567668  0.65783199  0.74607616     2.77500
O1588       O  0.76320724  0.59558181  0.74426575    -0.96400
O1589       O  0.82837493  0.65767113  0.74481946    -0.77200
Zr1590     Zr  0.66274863  0.66271507  0.75069712     2.70100
O1591       O  0.65992078  0.60053475  0.74886997    -0.78500
O1592       O  0.60041393  0.66840222  0.75364640    -0.97600
Zr1593     Zr  0.71928800  0.71002987  0.81696125     2.21500
Zr1594     Zr  0.71382078  0.71182246  0.68118157     2.11100
O1595       O  0.71267679  0.65977027  0.71414754    -2.46200
O1596       O  0.71562881  0.65878730  0.78268649    -0.78300
O1597       O  0.76735177  0.70929060  0.71248370    -0.70500
O1598       O  0.66600156  0.71353460  0.78537459    -2.31400
O1599       O  0.77018453  0.70818221  0.78151918    -2.27600
O1600       O  0.66328320  0.71422774  0.71686432    -0.72200
H1601       H  0.71849075  0.78296188  0.69984209     0.79800
H1602       H  0.64680064  0.71434345  0.80169422     0.80900
H1603       H  0.71108855  0.64023048  0.69825800     0.83100
H1604       H  0.79055900  0.70696881  0.79639475     0.80700
H1605       H  0.59729423  0.75001220  0.74085761     0.43700
H1606       H  0.59407983  0.68152494  0.73192870     0.42700
H1607       H  0.68349013  0.59300481  0.75532929     0.42400
H1608       H  0.74686639  0.59014555  0.72458685     0.40300
H1609       H  0.83451735  0.67809573  0.73055655     0.43400
H1610       H  0.84042273  0.74995738  0.77080402     0.38200
H1611       H  0.76032574  0.82924918  0.76923900     0.44300
H1612       H  0.69206033  0.83152175  0.73142171     0.40800
H1613       H  0.78598375  0.58852371  0.73499253     0.45700
H1614       H  0.84105981  0.77985590  0.74290577     0.44400
H1615       H  0.65457389  0.83650442  0.74579741     0.44500
H1616       H  0.59158556  0.64502101  0.74897782     0.44900
C1617       C  0.60328361  0.65272141  0.61185762     0.24900
C1618       C  0.63136146  0.63698478  0.62901240    -0.23200
C1619       C  0.64362580  0.60551548  0.61616057     0.19800
C1620       C  0.62851783  0.59033128  0.58590104     0.24900
C1621       C  0.60097399  0.60647493  0.56822738    -0.23100
C1622       C  0.58822720  0.63758437  0.58152246     0.19800
F1623       F  0.56203542  0.65379937  0.56430949    -0.13100
F1624       F  0.59109811  0.68313247  0.62393053    -0.15500
F1625       F  0.64188691  0.56082722  0.57268260    -0.15500
F1626       F  0.67126824  0.59037602  0.63193684    -0.13100
C1627       C  0.64426180  0.61119507  0.93511675     0.24900
C1628       C  0.60829708  0.60657667  0.93580308    -0.23200
C1629       C  0.58882020  0.61573044  0.90533782     0.19800
C1630       C  0.60494411  0.62975257  0.87511749     0.24900
C1631       C  0.64078362  0.63540258  0.87500244    -0.23100
C1632       C  0.66019453  0.62591241  0.90539261     0.19800
F1633       F  0.69480486  0.63079086  0.90640025    -0.13100
F1634       F  0.66418313  0.60121747  0.96326360    -0.15500
F1635       F  0.58523998  0.63947781  0.84674929    -0.15500
F1636       F  0.55399224  0.61255296  0.90539796    -0.13100
C1637       C  0.82187672  0.62532328  0.62082152     0.24900
C1638       C  0.78627447  0.63187336  0.62176959    -0.23200
C1639       C  0.76560346  0.62145204  0.59266358     0.19800
C1640       C  0.78018837  0.60487146  0.56315354     0.24900
C1641       C  0.81604323  0.59921467  0.56152487    -0.23100
C1642       C  0.83668697  0.60950607  0.59084008     0.19800
F1643       F  0.87145167  0.60596821  0.58972225    -0.13100
F1644       F  0.84263455  0.63595583  0.64807418    -0.15500
F1645       F  0.75908156  0.59429507  0.53614586    -0.15500
F1646       F  0.73108206  0.62708652  0.59289918    -0.13100
C1647       C  0.84089749  0.61972373  0.90911286     0.24900
C1648       C  0.82195290  0.59507756  0.92800167    -0.23200
C1649       C  0.78935358  0.58508226  0.91525910     0.19800
C1650       C  0.77528749  0.60046830  0.88471660     0.24900
C1651       C  0.79349787  0.62624046  0.86682116    -0.23100
C1652       C  0.82664694  0.63537042  0.87870833     0.19800
F1653       F  0.84439856  0.66057463  0.86193301    -0.13100
F1654       F  0.87228551  0.62993783  0.92132280    -0.15500
F1655       F  0.74347268  0.59095984  0.87313996    -0.15500
F1656       F  0.77074622  0.56122838  0.93314840    -0.13100
C1657       C  0.63331191  0.82800322  0.62934403     0.24900
C1658       C  0.63640761  0.79210396  0.62982925    -0.23200
C1659       C  0.62409092  0.77316979  0.60039001     0.19800
C1660       C  0.61046334  0.78961454  0.57042505     0.24900
C1661       C  0.60913601  0.82554577  0.56880412    -0.23100
C1662       C  0.61966116  0.84465592  0.59902111     0.19800
F1663       F  0.61847886  0.87935530  0.59847613    -0.13100
F1664       F  0.64550070  0.84699733  0.65718432    -0.15500
F1665       F  0.59899033  0.77025252  0.54251790    -0.15500
F1666       F  0.62572310  0.73850929  0.60035538    -0.13100
C1667       C  0.63884704  0.82534730  0.87593367     0.24900
C1668       C  0.64571598  0.78994205  0.87598639    -0.23200
C1669       C  0.63642880  0.77063034  0.90620260     0.19800
C1670       C  0.62024712  0.78611147  0.93539376     0.24900
C1671       C  0.61442317  0.82172188  0.93606869    -0.23100
C1672       C  0.62386321  0.84117320  0.90592557     0.19800
F1673       F  0.61998534  0.87568567  0.90607341    -0.13100
F1674       F  0.64810897  0.84492979  0.84755845    -0.15500
F1675       F  0.60992625  0.76598964  0.96296864    -0.15500
F1676       F  0.64255620  0.73644056  0.90736871    -0.13100
C1677       C  0.78719132  0.81485707  0.56617917     0.24900
C1678       C  0.82323189  0.81872627  0.56476539    -0.23200
C1679       C  0.84321766  0.80877981  0.59457078     0.19800
C1680       C  0.82762560  0.79384640  0.62449057     0.24900
C1681       C  0.79182238  0.78833645  0.62497514    -0.23100
C1682       C  0.77167729  0.79976176  0.59593059     0.19800
F1683       F  0.73682467  0.79659749  0.59650636    -0.13100
F1684       F  0.76691801  0.82568190  0.53867093    -0.15500
F1685       F  0.84775006  0.78321785  0.65218541    -0.15500
F1686       F  0.87804747  0.81183617  0.59398678    -0.13100
C1687       C  0.80818743  0.81757581  0.87277078     0.24900
C1688       C  0.80278005  0.78205354  0.87095651    -0.23200
C1689       C  0.81492355  0.76124443  0.89899926     0.19800
C1690       C  0.83119796  0.77573999  0.92883093     0.24900
C1691       C  0.83474084  0.81146076  0.93182425    -0.23100
C1692       C  0.82375082  0.83223910  0.90315827     0.19800
F1693       F  0.82595371  0.86683421  0.90555573    -0.13100
F1694       F  0.79631338  0.83826498  0.84626636    -0.15500
F1695       F  0.84284316  0.75483911  0.95528810    -0.15500
F1696       F  0.81067580  0.72676108  0.89770657    -0.13100
loop_ 
_geom_bond_atom_site_label_1 
_geom_bond_atom_site_label_2 
_geom_bond_distance 
_geom_bond_site_symmetry_2 
_ccdc_geom_bond_type 
C1            C2   1.404       .  A
C1            C6   1.403       .  A
C1          C207   1.486       .  S
C2          C215   1.403       .  A
C2            H7   1.083       .  S
C3            C4   1.405       .  A
C3          C214   1.405   1_554  A
C3          C194   1.488       .  S
C4            C5   1.405       .  A
C4            H8   1.084       .  S
C5          C218   1.405   1_554  A
C5           C48   1.485       .  S
C6          C217   1.404       .  A
C6            H9   1.084       .  S
C10          C11   1.408       .  A
C10          C15   1.403       .  A
C10         C187   1.494       .  S
C11         C224   1.409       .  A
C11          H16   1.083       .  S
C12          C13   1.406   1_556  A
C12         C223   1.410       .  A
C12          C49   1.487       .  S
C13          C14   1.401       .  A
C13          H17   1.084       .  S
C14         C227   1.402       .  A
C14         C177   1.485       .  S
C15         C226   1.402       .  A
C15          H18   1.084       .  S
C19          C20   1.401       .  A
C19          C24   1.399       .  A
C19         C164   1.475       .  S
C20         C233   1.405       .  A
C20          H25   1.084       .  S
C21          C22   1.408       .  A
C21         C232   1.406   1_554  A
C21         C157   1.492       .  S
C22          C23   1.406   1_554  A
C22          H26   1.083       .  S
C23         C236   1.403       .  A
C23          C51   1.484   1_556  S
C24         C235   1.401       .  A
C24          H27   1.084       .  S
N28          C33   1.354   1_556  A
N28          C32   1.354   1_556  A
N28          H60   1.035       .  S
N29          C36   1.352   1_554  A
N29          C37   1.352   1_554  A
N30          C35   1.355   1_556  A
N30          C34   1.355   1_556  A
N30         H485   1.034   1_545  S
N31          C38   1.353       .  A
N31          C39   1.353       .  A
C32          C40   1.387       .  A
C32          C48   1.417       .  A
C33          C41   1.388       .  A
C33         C897   1.420   1_554  A
C34          C42   1.386       .  A
C34          C51   1.417       .  A
C35          C43   1.388       .  A
C35         C898   1.421   1_554  A
C36          C48   1.415   1_556  A
C36          C44   1.387       .  A
C37          C45   1.387       .  A
C37         C475   1.414   1_556  A
C38          C46   1.387       .  A
C38          C49   1.418       .  A
C39          C47   1.386       .  A
C39         C474   1.418       .  A
C40          C41   1.376       .  A
C40          H52   1.082       .  S
C41          H53   1.082       .  S
C42          C43   1.375       .  A
C42          H54   1.082       .  S
C43         H903   1.082       .  S
C44          C45   1.372       .  A
C44          H56   1.082       .  S
C45          H57   1.082       .  S
C46          C47   1.373       .  A
C46          H58   1.082       .  S
C47          H59   1.082       .  S
C49         C881   1.421   1_456  A
C50         C883   1.420   1_456  A
C50         C463   1.416   1_545  A
C50          C64   1.485       .  S
C51         C461   1.414   1_544  A
H55         C891   1.082       .  S
H61         N454   1.036       .  S
C62          C63   1.408       .  A
C62          C67   1.407       .  A
C62         C144   1.493       .  S
C63         C276   1.407       .  A
C63          H68   1.083       .  S
C64          C65   1.403   1_556  A
C64         C275   1.407       .  A
C65          C66   1.398       .  A
C65          H69   1.084       .  S
C66         C279   1.399       .  A
C66         C137   1.474       .  S
C67         C278   1.399       .  A
C67          H70   1.084       .  S
O71         Zr83   2.458       .  S
O71          C73   1.290       .  A
O72        Zr109   2.418       .  S
O72          C73   1.286       .  A
C73         C204   1.479       .  S
O74         Zr86   2.460       .  S
O74          C76   1.290       .  A
O75        Zr110   2.411       .  S
O75          C76   1.285       .  A
C76         C174   1.481       .  S
O77         Zr86   2.450       .  S
O77          C79   1.289       .  A
O78        Zr109   2.428       .  S
O78          C79   1.288       .  A
C79         C184   1.484       .  S
O80         Zr83   2.447       .  S
O80          C82   1.289       .  A
O81        Zr110   2.416       .  S
O81          C82   1.286       .  A
C82         C197   1.478       .  S
Zr83         O84   2.434       .  S
Zr83         O85   2.435       .  S
Zr83         O89   2.375       .  S
Zr83         O90   2.376       .  S
Zr83        O113   2.378       .  S
Zr83        O115   2.375       .  S
O84         H127   0.990       .  S
O85         H126   0.989       .  S
O85         H130   0.991       .  S
Zr86         O87   2.433       .  S
Zr86         O88   2.433       .  S
Zr86         O90   2.367       .  S
Zr86         O89   2.376       .  S
Zr86        O114   2.378       .  S
Zr86        O116   2.380       .  S
O87         H128   0.990       .  S
O87         H131   0.990       .  S
O88         H121   0.990       .  S
O89        Zr109   2.380       .  S
O90        Zr110   2.386       .  S
O90         H117   0.967       .  S
O91        Zr103   2.455       .  S
O91          C93   1.290       .  A
O92        Zr110   2.421       .  S
O92          C93   1.286       .  A
C93         C154   1.480       .  S
O94        Zr106   2.451       .  S
O94          C96   1.289       .  A
O95        Zr109   2.417       .  S
O95          C96   1.286       .  A
C96         C147   1.485       .  S
O97        Zr106   2.445       .  S
O97          C99   1.287       .  A
O98        Zr110   2.429       .  S
O98          C99   1.287       .  A
C99         C134   1.470       .  S
O100       Zr103   2.444       .  S
O100        C102   1.287       .  A
O101       Zr109   2.425       .  S
O101        C102   1.287       .  A
C102        C167   1.469       .  S
Zr103       O104   2.436       .  S
Zr103       O105   2.435       .  S
Zr103       O111   2.373       .  S
Zr103       O112   2.379       .  S
Zr103       O115   2.376       .  S
Zr103       O113   2.371       .  S
O104        H124   0.990       .  S
O104        H129   0.990       .  S
O105        H125   0.990       .  S
Zr106       O107   2.435       .  S
Zr106       O108   2.433       .  S
Zr106       O112   2.375       .  S
Zr106       O111   2.378       .  S
Zr106       O116   2.375       .  S
Zr106       O114   2.369       .  S
O107        H123   0.990       .  S
O108        H122   0.990       .  S
O108        H132   0.990       .  S
Zr109       O112   2.377       .  S
Zr109       O114   2.379       .  S
Zr109       O115   2.384       .  S
Zr110       O111   2.378       .  S
Zr110       O113   2.380       .  S
Zr110       O116   2.375       .  S
O111        H119   0.967       .  S
O114        H118   0.965       .  S
O115        H120   0.965       .  S
C133        C134   1.404       .  A
C133        C138   1.400       .  A
C133        F140   1.357       .  S
C134        C135   1.404       .  A
C135        C136   1.399       .  A
C135        F142   1.358       .  S
C136        C137   1.404       .  A
C136        F141   1.358       .  S
C137        C138   1.404       .  A
C138        F139   1.358       .  S
C143        C144   1.409       .  A
C143        C148   1.393       .  A
C143        F150   1.358       .  S
C144        C145   1.411       .  A
C145        C146   1.405       .  A
C145        F152   1.357       .  S
C146        C147   1.410       .  A
C146        F151   1.358       .  S
C147        C148   1.406       .  A
C148        F149   1.356       .  S
C153        C154   1.406       .  A
C153        C158   1.403       .  A
C153        F160   1.358       .  S
C154        C155   1.406       .  A
C155        C156   1.400       .  A
C155        F162   1.358       .  S
C156        C157   1.410       .  A
C156        F161   1.358       .  S
C157        C158   1.410       .  A
C158        F159   1.358       .  S
C163        C164   1.406       .  A
C163        C168   1.401       .  A
C163        F170   1.358       .  S
C164        C165   1.405       .  A
C165        C166   1.396       .  A
C165        F172   1.358       .  S
C166        C167   1.402       .  A
C166        F171   1.356       .  S
C167        C168   1.404       .  A
C168        F169   1.357       .  S
C173        C174   1.409       .  A
C173        C178   1.407       .  A
C173        F180   1.358       .  S
C174        C175   1.406       .  A
C175        C176   1.393       .  A
C175        F182   1.357       .  S
C176        C177   1.405       .  A
C176        F181   1.358       .  S
C177        C178   1.408       .  A
C178        F179   1.358       .  S
C183        C184   1.410       .  A
C183        C188   1.406       .  A
C183        F190   1.358       .  S
C184        C185   1.405       .  A
C185        C186   1.396       .  A
C185        F192   1.359       .  S
C186        C187   1.411       .  A
C186        F191   1.358       .  S
C187        C188   1.409       .  A
C188        F189   1.358       .  S
C193        C194   1.408       .  A
C193        C198   1.397       .  A
C193        F200   1.358       .  S
C194        C195   1.409       .  A
C195        C196   1.402       .  A
C195        F202   1.357       .  S
C196        C197   1.407       .  A
C196        F201   1.358       .  S
C197        C198   1.406       .  A
C198        F199   1.359       .  S
C203        C204   1.407       .  A
C203        C208   1.404       .  A
C203        F210   1.358       .  S
C204        C205   1.405       .  A
C205        C206   1.396       .  A
C205        F212   1.358       .  S
C206        C207   1.407       .  A
C206        F211   1.358       .  S
C207        C208   1.409       .  A
C208        F209   1.358       .  S
C213        C214   1.405       .  A
C213        C218   1.404       .  A
C213        C419   1.488       .  S
C214        H219   1.084       .  S
C215        C216   1.406       .  A
C215        C406   1.487       .  S
C216        C217   1.405       .  A
C216        H220   1.084       .  S
C217        C260   1.484       .  S
C218        H221   1.084       .  S
C222        C223   1.409       .  A
C222        C227   1.404   1_556  A
C222        C399   1.495       .  S
C223        H228   1.083       .  S
C224        C225   1.406       .  A
C224        C261   1.488       .  S
C225        C226   1.402       .  A
C225        H229   1.084       .  S
C226        C389   1.484       .  S
C227        H230   1.084       .  S
C231        C232   1.403       .  A
C231        C236   1.400       .  A
C231        C376   1.480       .  S
C232        H237   1.084       .  S
C233        C234   1.408       .  A
C233        C369   1.489       .  S
C234        C235   1.406       .  A
C234        H238   1.083       .  S
C235        C263   1.482       .  S
C236        H239   1.084       .  S
N240        C245   1.353       .  A
N240        C244   1.354       .  A
N240        H272   1.034       .  S
N241        C248   1.353       .  A
N241        C249   1.352       .  A
N242        C247   1.355       .  A
N242        C246   1.354       .  A
N242        H697   1.035   1_545  S
N243        C250   1.352       .  A
N243        C251   1.352       .  A
C244        C252   1.386       .  A
C244        C260   1.416       .  A
C245       C1109   1.418       .  A
C245        C253   1.388       .  A
C246        C254   1.386       .  A
C246        C263   1.417       .  A
C247       C1110   1.420       .  A
C247        C255   1.388       .  A
C248        C260   1.415       .  A
C248        C256   1.386       .  A
C249        C687   1.415       .  A
C249        C257   1.387       .  A
C250        C258   1.387       .  A
C250        C261   1.416       .  A
C251        C259   1.387       .  A
C251        C686   1.416       .  A
C252        C253   1.375       .  A
C252        H264   1.082       .  S
C253        H265   1.082       .  S
C254        C255   1.374       .  A
C254        H266   1.082       .  S
C255       H1115   1.082       .  S
C256        C257   1.371       .  A
C256        H268   1.082       .  S
C257        H269   1.082       .  S
C258        C259   1.373       .  A
C258        H270   1.082       .  S
C259        H271   1.082       .  S
C261       C1093   1.420   1_455  A
C262       C1095   1.421   1_455  A
C262        C675   1.415   1_545  A
C262        C276   1.485       .  S
C263        C673   1.414   1_545  A
H267       C1103   1.082       .  S
H273        N666   1.035       .  S
C274        C275   1.409       .  A
C274        C279   1.407   1_556  A
C274        C356   1.492       .  S
C275        H280   1.083       .  S
C276        C277   1.403       .  A
C277        C278   1.398       .  A
C277        H281   1.084       .  S
C278        C349   1.473       .  S
C279        H282   1.084       .  S
O283       Zr295   2.452       .  S
O283        C285   1.289       .  A
O284       Zr321   2.420       .  S
O284        C285   1.286       .  A
C285        C416   1.479       .  S
O286       Zr298   2.454       .  S
O286        C288   1.290       .  A
O287       Zr322   2.405       .  S
O287        C288   1.284       .  A
C288        C386   1.475       .  S
O289       Zr298   2.452       .  S
O289        C291   1.290       .  A
O290       Zr321   2.427       .  S
O290        C291   1.288       .  A
C291        C396   1.485       .  S
O292       Zr295   2.443       .  S
O292        C294   1.288       .  A
O293       Zr322   2.426       .  S
O293        C294   1.288       .  A
C294        C409   1.481       .  S
Zr295       O296   2.434       .  S
Zr295       O297   2.434       .  S
Zr295       O301   2.376       .  S
Zr295       O302   2.374       .  S
Zr295       O325   2.379       .  S
Zr295       O327   2.373       .  S
O296        H339   0.990       .  S
O297        H338   0.989       .  S
O297        H342   0.991       .  S
Zr298       O299   2.435       .  S
Zr298       O300   2.436       .  S
Zr298       O302   2.371       .  S
Zr298       O301   2.377       .  S
Zr298       O326   2.374       .  S
Zr298       O328   2.380       .  S
O299        H340   0.990       .  S
O299        H343   0.990       .  S
O300        H333   0.990       .  S
O301       Zr321   2.379       .  S
O302       Zr322   2.382       .  S
O302        H329   0.967       .  S
O303       Zr315   2.449       .  S
O303        C305   1.289       .  A
O304       Zr322   2.426       .  S
O304        C305   1.287       .  A
C305        C366   1.480       .  S
O306       Zr318   2.459       .  S
O306        C308   1.291       .  A
O307       Zr321   2.411       .  S
O307        C308   1.285       .  A
C308        C359   1.487       .  S
O309       Zr318   2.453       .  S
O309        C311   1.288       .  A
O310       Zr322   2.422       .  S
O310        C311   1.285       .  A
C311        C346   1.469       .  S
O312       Zr315   2.441       .  S
O312        C314   1.287       .  A
O313       Zr321   2.429       .  S
O313        C314   1.287       .  A
C314        C379   1.471       .  S
Zr315       O316   2.437       .  S
Zr315       O317   2.435       .  S
Zr315       O323   2.372       .  S
Zr315       O324   2.381       .  S
Zr315       O327   2.375       .  S
Zr315       O325   2.372       .  S
O316        H336   0.990       .  S
O316        H341   0.990       .  S
O317        H337   0.990       .  S
Zr318       O319   2.433       .  S
Zr318       O320   2.436       .  S
Zr318       O324   2.378       .  S
Zr318       O323   2.381       .  S
Zr318       O328   2.374       .  S
Zr318       O326   2.369       .  S
O319        H335   0.990       .  S
O320        H334   0.990       .  S
O320        H344   0.991       .  S
Zr321       O324   2.378       .  S
Zr321       O326   2.382       .  S
Zr321       O327   2.379       .  S
Zr322       O323   2.379       .  S
Zr322       O325   2.375       .  S
Zr322       O328   2.381       .  S
O323        H331   0.967       .  S
O326        H330   0.965       .  S
O327        H332   0.965       .  S
C345        C346   1.404       .  A
C345        C350   1.400       .  A
C345        F352   1.357       .  S
C346        C347   1.404       .  A
C347        C348   1.400       .  A
C347        F354   1.358       .  S
C348        C349   1.404       .  A
C348        F353   1.358       .  S
C349        C350   1.404       .  A
C350        F351   1.358       .  S
C355        C356   1.408       .  A
C355        C360   1.394       .  A
C355        F362   1.358       .  S
C356        C357   1.411       .  A
C357        C358   1.405       .  A
C357        F364   1.358       .  S
C358        C359   1.409       .  A
C358        F363   1.358       .  S
C359        C360   1.408       .  A
C360        F361   1.357       .  S
C365        C366   1.407       .  A
C365        C370   1.403       .  A
C365        F372   1.358       .  S
C366        C367   1.405       .  A
C367        C368   1.398       .  A
C367        F374   1.358       .  S
C368        C369   1.409       .  A
C368        F373   1.358       .  S
C369        C370   1.409       .  A
C370        F371   1.358       .  S
C375        C376   1.408       .  A
C375        C380   1.403       .  A
C375        F382   1.358       .  S
C376        C377   1.405       .  A
C377        C378   1.396       .  A
C377        F384   1.358       .  S
C378        C379   1.401       .  A
C378        F383   1.356       .  S
C379        C380   1.405       .  A
C380        F381   1.358       .  S
C385        C386   1.407       .  A
C385        C390   1.405       .  A
C385        F392   1.358       .  S
C386        C387   1.404       .  A
C387        C388   1.391       .  A
C387        F394   1.357       .  S
C388        C389   1.406       .  A
C388        F393   1.358       .  S
C389        C390   1.408       .  A
C390        F391   1.357       .  S
C395        C396   1.409       .  A
C395        C400   1.406       .  A
C395        F402   1.358       .  S
C396        C397   1.406       .  A
C397        C398   1.396       .  A
C397        F404   1.359       .  S
C398        C399   1.411       .  A
C398        F403   1.358       .  S
C399        C400   1.410       .  A
C400        F401   1.358       .  S
C405        C406   1.408       .  A
C405        C410   1.396       .  A
C405        F412   1.358       .  S
C406        C407   1.408       .  A
C407        C408   1.403       .  A
C407        F414   1.358       .  S
C408        C409   1.409       .  A
C408        F413   1.358       .  S
C409        C410   1.406       .  A
C410        F411   1.359       .  S
C415        C416   1.407       .  A
C415        C420   1.404       .  A
C415        F422   1.358       .  S
C416        C417   1.406       .  A
C417        C418   1.396       .  A
C417        F424   1.359       .  S
C418        C419   1.407       .  A
C418        F423   1.358       .  S
C419        C420   1.410       .  A
C420        F421   1.358       .  S
C425        C426   1.403       .  A
C425        C430   1.402       .  A
C425        C631   1.484       .  S
C426        C639   1.403       .  A
C426        H431   1.084       .  S
C427        C638   1.403   1_554  A
C427        C428   1.406       .  A
C427        C618   1.487       .  S
C428        C429   1.405       .  A
C428        H432   1.083       .  S
C429        C642   1.404   1_554  A
C429        C472   1.483       .  S
C430        C641   1.403       .  A
C430        H433   1.084       .  S
C434        C435   1.404       .  A
C434        C439   1.400       .  A
C434        C611   1.488       .  S
C435        C648   1.408       .  A
C435        H440   1.083       .  S
C436        C647   1.408       .  A
C436        C437   1.406   1_556  A
C436        C473   1.485       .  S
C437        C438   1.402       .  A
C437        H441   1.084       .  S
C438        C651   1.403       .  A
C438        C601   1.485       .  S
C439        C650   1.404       .  A
C439        H442   1.084       .  S
C443        C444   1.403       .  A
C443        C448   1.399       .  A
C443        C588   1.480       .  S
C444        C657   1.407       .  A
C444        H449   1.084       .  S
C445        C656   1.407   1_554  A
C445        C446   1.408       .  A
C445        C581   1.492       .  S
C446        C447   1.406   1_554  A
C446        H450   1.083       .  S
C447        C660   1.402       .  A
C447        C475   1.483   1_556  S
C448        C659   1.402       .  A
C448        H451   1.084       .  S
N452        C457   1.355   1_556  A
N452        C456   1.355   1_556  A
N452        H484   1.035       .  S
N453        C460   1.352   1_554  A
N453        C461   1.352   1_554  A
N454        C459   1.355   1_556  A
N454        C458   1.354   1_556  A
N455        C462   1.352       .  A
N455        C463   1.352       .  A
C456        C464   1.386       .  A
C456        C472   1.417       .  A
C457       C1321   1.420   1_554  A
C457        C465   1.388       .  A
C458        C466   1.386       .  A
C458        C475   1.417       .  A
C459       C1322   1.420   1_554  A
C459        C467   1.388       .  A
C460        C472   1.413   1_556  A
C460        C468   1.387       .  A
C461        C469   1.387       .  A
C462        C470   1.388       .  A
C462        C473   1.417       .  A
C463        C471   1.387       .  A
C464        C465   1.376       .  A
C464        H476   1.082       .  S
C465        H477   1.082       .  S
C466        C467   1.375       .  A
C466        H478   1.082       .  S
C467       H1327   1.082       .  S
C468        C469   1.371       .  A
C468        H480   1.082       .  S
C469        H481   1.082       .  S
C470        C471   1.373       .  A
C470        H482   1.082       .  S
C471        H483   1.082   1_565  S
C473       C1305   1.421   1_456  A
C474       C1307   1.421   1_456  A
C474        C488   1.489       .  S
H479       C1315   1.082       .  S
C486        C487   1.408       .  A
C486        C491   1.407       .  A
C486        C568   1.494       .  S
C487        C700   1.407       .  A
C487        H492   1.083       .  S
C488        C699   1.409       .  A
C488        C489   1.404   1_556  A
C489        C490   1.400       .  A
C489        H493   1.084       .  S
C490        C703   1.401       .  A
C490        C561   1.478       .  S
C491        C702   1.402       .  A
C491        H494   1.084       .  S
O495       Zr507   2.457       .  S
O495        C497   1.290       .  A
O496       Zr533   2.414       .  S
O496        C497   1.285       .  A
C497        C628   1.476       .  S
O498       Zr510   2.460       .  S
O498        C500   1.290       .  A
O499       Zr534   2.409       .  S
O499        C500   1.285       .  A
C500        C598   1.482       .  S
O501       Zr510   2.446       .  S
O501        C503   1.288       .  A
O502       Zr533   2.427       .  S
O502        C503   1.288       .  A
C503        C608   1.481       .  S
O504       Zr507   2.450       .  S
O504        C506   1.289       .  A
O505       Zr534   2.428       .  S
O505        C506   1.288       .  A
C506        C621   1.481       .  S
Zr507       O508   2.434       .  S
Zr507       O509   2.434       .  S
Zr507       O513   2.376       .  S
Zr507       O514   2.374       .  S
Zr507       O537   2.378       .  S
Zr507       O539   2.374       .  S
O508        H551   0.990       .  S
O509        H550   0.989       .  S
O509        H554   0.991       .  S
Zr510       O511   2.435       .  S
Zr510       O512   2.435       .  S
Zr510       O514   2.369       .  S
Zr510       O513   2.377       .  S
Zr510       O538   2.379       .  S
Zr510       O540   2.379       .  S
O511        H552   0.990       .  S
O511        H555   0.990       .  S
O512        H545   0.990       .  S
O513       Zr533   2.381       .  S
O514       Zr534   2.382       .  S
O514        H541   0.967       .  S
O515       Zr527   2.452       .  S
O515        C517   1.290       .  A
O516       Zr534   2.428       .  S
O516        C517   1.287       .  A
C517        C578   1.482       .  S
O518       Zr530   2.463       .  S
O518        C520   1.292       .  A
O519       Zr533   2.415       .  S
O519        C520   1.286       .  A
C520        C571   1.489       .  S
O521       Zr530   2.452       .  S
O521        C523   1.289       .  A
O522       Zr534   2.424       .  S
O522        C523   1.286       .  A
C523        C558   1.472       .  S
O524       Zr527   2.447       .  S
O524        C526   1.288       .  A
O525       Zr533   2.430       .  S
O525        C526   1.288       .  A
C526        C591   1.473       .  S
Zr527       O528   2.436       .  S
Zr527       O529   2.435       .  S
Zr527       O535   2.372       .  S
Zr527       O536   2.379       .  S
Zr527       O539   2.376       .  S
Zr527       O537   2.376       .  S
O528        H548   0.990       .  S
O528        H553   0.990       .  S
O529        H549   0.990       .  S
Zr530       O531   2.434       .  S
Zr530       O532   2.433       .  S
Zr530       O536   2.374       .  S
Zr530       O535   2.376       .  S
Zr530       O540   2.378       .  S
Zr530       O538   2.371       .  S
O531        H547   0.990       .  S
O532        H546   0.990       .  S
O532        H556   0.990       .  S
Zr533       O536   2.377       .  S
Zr533       O538   2.381       .  S
Zr533       O539   2.383       .  S
Zr534       O535   2.380       .  S
Zr534       O537   2.379       .  S
Zr534       O540   2.380       .  S
O535        H543   0.967       .  S
O538        H542   0.965       .  S
O539        H544   0.965       .  S
C557        C558   1.404       .  A
C557        C562   1.400       .  A
C557        F564   1.355       .  S
C558        C559   1.404       .  A
C559        C560   1.401       .  A
C559        F566   1.358       .  S
C560        C561   1.406       .  A
C560        F565   1.358       .  S
C561        C562   1.405       .  A
C562        F563   1.358       .  S
C567        C568   1.408       .  A
C567        C572   1.396       .  A
C567        F574   1.358       .  S
C568        C569   1.411       .  A
C569        C570   1.406       .  A
C569        F576   1.357       .  S
C570        C571   1.409       .  A
C570        F575   1.358       .  S
C571        C572   1.408       .  A
C572        F573   1.356       .  S
C577        C578   1.406       .  A
C577        C582   1.403       .  A
C577        F584   1.358       .  S
C578        C579   1.406       .  A
C579        C580   1.400       .  A
C579        F586   1.358       .  S
C580        C581   1.410       .  A
C580        F585   1.358       .  S
C581        C582   1.410       .  A
C582        F583   1.358       .  S
C587        C588   1.407       .  A
C587        C592   1.403       .  A
C587        F594   1.358       .  S
C588        C589   1.405       .  A
C589        C590   1.397       .  A
C589        F596   1.358       .  S
C590        C591   1.403       .  A
C590        F595   1.356       .  S
C591        C592   1.405       .  A
C592        F593   1.357       .  S
C597        C598   1.410       .  A
C597        C602   1.408       .  A
C597        F604   1.357       .  S
C598        C599   1.405       .  A
C599        C600   1.389       .  A
C599        F606   1.355       .  S
C600        C601   1.405       .  A
C600        F605   1.358       .  S
C601        C602   1.409       .  A
C602        F603   1.358       .  S
C607        C608   1.409       .  A
C607        C612   1.405       .  A
C607        F614   1.358       .  S
C608        C609   1.405       .  A
C609        C610   1.395       .  A
C609        F616   1.359       .  S
C610        C611   1.410       .  A
C610        F615   1.358       .  S
C611        C612   1.407       .  A
C612        F613   1.358       .  S
C617        C618   1.408       .  A
C617        C622   1.398       .  A
C617        F624   1.358       .  S
C618        C619   1.408       .  A
C619        C620   1.403       .  A
C619        F626   1.358       .  S
C620        C621   1.408       .  A
C620        F625   1.358       .  S
C621        C622   1.407       .  A
C622        F623   1.358       .  S
C627        C628   1.406       .  A
C627        C632   1.402       .  A
C627        F634   1.358       .  S
C628        C629   1.406       .  A
C629        C630   1.396       .  A
C629        F636   1.358       .  S
C630        C631   1.407       .  A
C630        F635   1.358       .  S
C631        C632   1.409       .  A
C632        F633   1.358       .  S
C637        C638   1.403       .  A
C637        C642   1.402       .  A
C637        C843   1.483       .  S
C638        H643   1.084       .  S
C639        C640   1.407       .  A
C639        C830   1.487       .  S
C640        C641   1.406       .  A
C640        H644   1.083       .  S
C641        C684   1.485       .  S
C642        H645   1.084       .  S
C646        C647   1.406       .  A
C646        C651   1.401   1_556  A
C646        C823   1.489       .  S
C647        H652   1.083       .  S
C648        C649   1.407       .  A
C648        C685   1.484       .  S
C649        C650   1.403       .  A
C649        H653   1.083       .  S
C650        C813   1.489       .  S
C651        H654   1.084       .  S
C655        C656   1.403       .  A
C655        C660   1.399       .  A
C655        C800   1.478       .  S
C656        H661   1.084       .  S
C657        C658   1.409       .  A
C657        C793   1.494       .  S
C658        C659   1.406       .  A
C658        H662   1.083       .  S
C659        C687   1.483       .  S
C660        H663   1.084       .  S
N664        C669   1.355       .  A
N664        C668   1.354       .  A
N664        H696   1.033       .  S
N665        C672   1.352       .  A
N665        C673   1.352       .  A
N666        C671   1.355       .  A
N666        C670   1.354       .  A
N667        C674   1.351       .  A
N667        C675   1.352       .  A
C668        C676   1.387       .  A
C668        C684   1.418       .  A
C669       C1533   1.421       .  A
C669        C677   1.388       .  A
C670        C678   1.387       .  A
C670        C687   1.418       .  A
C671       C1534   1.420       .  A
C671        C679   1.388       .  A
C672        C684   1.416       .  A
C672        C680   1.387       .  A
C673        C681   1.387       .  A
C674        C682   1.388       .  A
C674        C685   1.416       .  A
C675        C683   1.387       .  A
C676        C677   1.375       .  A
C676        H688   1.082       .  S
C677        H689   1.082       .  S
C678        C679   1.375       .  A
C678        H690   1.082       .  S
C679       H1539   1.082       .  S
C680        C681   1.372       .  A
C680        H692   1.082       .  S
C681        H693   1.082       .  S
C682        C683   1.372       .  A
C682        H694   1.082       .  S
C683        H695   1.082   1_565  S
C685       C1517   1.420   1_455  A
C686       C1519   1.421   1_455  A
C686        C700   1.485       .  S
H691       C1527   1.082       .  S
C698        C699   1.410       .  A
C698        C703   1.407   1_556  A
C698        C780   1.495       .  S
C699        H704   1.083       .  S
C700        C701   1.404       .  A
C701        C702   1.400       .  A
C701        H705   1.084       .  S
C702        C773   1.480       .  S
C703        H706   1.084       .  S
O707       Zr719   2.452       .  S
O707        C709   1.289       .  A
O708       Zr745   2.410       .  S
O708        C709   1.285       .  A
C709        C840   1.474       .  S
O710       Zr722   2.462       .  S
O710        C712   1.291       .  A
O711       Zr746   2.405       .  S
O711        C712   1.284       .  A
C712        C810   1.483       .  S
O713       Zr722   2.455       .  S
O713        C715   1.291       .  A
O714       Zr745   2.427       .  S
O714        C715   1.288       .  A
C715        C820   1.485       .  S
O716       Zr719   2.451       .  S
O716        C718   1.290       .  A
O717       Zr746   2.420       .  S
O717        C718   1.287       .  A
C718        C833   1.481       .  S
Zr719       O720   2.434       .  S
Zr719       O721   2.437       .  S
Zr719       O725   2.376       .  S
Zr719       O726   2.373       .  S
Zr719       O749   2.378       .  S
Zr719       O751   2.372       .  S
O720        H763   0.990       .  S
O721        H762   0.989       .  S
O721        H766   0.991       .  S
Zr722       O723   2.435       .  S
Zr722       O724   2.434       .  S
Zr722       O726   2.369       .  S
Zr722       O725   2.377       .  S
Zr722       O750   2.377       .  S
Zr722       O752   2.380       .  S
O723        H764   0.990       .  S
O723        H767   0.990       .  S
O724        H757   0.990       .  S
O725       Zr745   2.380       .  S
O726       Zr746   2.381       .  S
O726        H753   0.967       .  S
O727       Zr739   2.449       .  S
O727        C729   1.289       .  A
O728       Zr746   2.420       .  S
O728        C729   1.286       .  A
C729        C790   1.479       .  S
O730       Zr742   2.451       .  S
O730        C732   1.289       .  A
O731       Zr745   2.415       .  S
O731        C732   1.286       .  A
C732        C783   1.485       .  S
O733       Zr742   2.440       .  S
O733        C735   1.286       .  A
O734       Zr746   2.432       .  S
O734        C735   1.288       .  A
C735        C770   1.471       .  S
O736       Zr739   2.440       .  S
O736        C738   1.286       .  A
O737       Zr745   2.432       .  S
O737        C738   1.288       .  A
C738        C803   1.471       .  S
Zr739       O740   2.435       .  S
Zr739       O741   2.434       .  S
Zr739       O747   2.369       .  S
Zr739       O748   2.377       .  S
Zr739       O751   2.376       .  S
Zr739       O749   2.375       .  S
O740        H760   0.990       .  S
O740        H765   0.990       .  S
O741        H761   0.990       .  S
Zr742       O743   2.433       .  S
Zr742       O744   2.435       .  S
Zr742       O748   2.374       .  S
Zr742       O747   2.377       .  S
Zr742       O752   2.380       .  S
Zr742       O750   2.366       .  S
O743        H759   0.990       .  S
O744        H758   0.990       .  S
O744        H768   0.991       .  S
Zr745       O748   2.373       .  S
Zr745       O750   2.378       .  S
Zr745       O751   2.383       .  S
Zr746       O747   2.376       .  S
Zr746       O749   2.381       .  S
Zr746       O752   2.379       .  S
O747        H755   0.967       .  S
O750        H754   0.965       .  S
O751        H756   0.965       .  S
C769        C770   1.401       .  A
C769        C774   1.397       .  A
C769        F776   1.355       .  S
C770        C771   1.405       .  A
C771        C772   1.402       .  A
C771        F778   1.358       .  S
C772        C773   1.408       .  A
C772        F777   1.358       .  S
C773        C774   1.405       .  A
C774        F775   1.358       .  S
C779        C780   1.409       .  A
C779        C784   1.394       .  A
C779        F786   1.358       .  S
C780        C781   1.411       .  A
C781        C782   1.406       .  A
C781        F788   1.357       .  S
C782        C783   1.409       .  A
C782        F787   1.358       .  S
C783        C784   1.406       .  A
C784        F785   1.356       .  S
C789        C790   1.405       .  A
C789        C794   1.402       .  A
C789        F796   1.358       .  S
C790        C791   1.405       .  A
C791        C792   1.399       .  A
C791        F798   1.359       .  S
C792        C793   1.411       .  A
C792        F797   1.358       .  S
C793        C794   1.411       .  A
C794        F795   1.357       .  S
C799        C800   1.407       .  A
C799        C804   1.403       .  A
C799        F806   1.358       .  S
C800        C801   1.405       .  A
C801        C802   1.396       .  A
C801        F808   1.358       .  S
C802        C803   1.401       .  A
C802        F807   1.356       .  S
C803        C804   1.406       .  A
C804        F805   1.358       .  S
C809        C810   1.410       .  A
C809        C814   1.409       .  A
C809        F816   1.358       .  S
C810        C811   1.405       .  A
C811        C812   1.388       .  A
C811        F818   1.356       .  S
C812        C813   1.406       .  A
C812        F817   1.358       .  S
C813        C814   1.411       .  A
C814        F815   1.357       .  S
C819        C820   1.410       .  A
C819        C824   1.405       .  A
C819        F826   1.357       .  S
C820        C821   1.407       .  A
C821        C822   1.396       .  A
C821        F828   1.359       .  S
C822        C823   1.410       .  A
C822        F827   1.358       .  S
C823        C824   1.407       .  A
C824        F825   1.358       .  S
C829        C830   1.408       .  A
C829        C834   1.397       .  A
C829        F836   1.358       .  S
C830        C831   1.408       .  A
C831        C832   1.403       .  A
C831        F838   1.358       .  S
C832        C833   1.408       .  A
C832        F837   1.358       .  S
C833        C834   1.407       .  A
C834        F835   1.359       .  S
C839        C840   1.406       .  A
C839        C844   1.403       .  A
C839        F846   1.358       .  S
C840        C841   1.404       .  A
C841        C842   1.394       .  A
C841        F848   1.359       .  S
C842        C843   1.406       .  A
C842        F847   1.358       .  S
C843        C844   1.409       .  A
C844        F845   1.358       .  S
C849        C850   1.404       .  A
C849        C854   1.403       .  A
C849       C1055   1.484       .  S
C850       C1063   1.403       .  A
C850        H855   1.084       .  S
C851       C1062   1.403   1_554  A
C851        C852   1.407       .  A
C851       C1042   1.488       .  S
C852        C853   1.406       .  A
C852        H856   1.083       .  S
C853       C1066   1.403   1_554  A
C853        C896   1.484       .  S
C854       C1065   1.404       .  A
C854        H857   1.084       .  S
C858        C859   1.404       .  A
C858        C863   1.401       .  A
C858       C1035   1.488       .  S
C859       C1072   1.407       .  A
C859        H864   1.084       .  S
C860       C1071   1.408       .  A
C860        C861   1.408   1_556  A
C860        C897   1.486       .  S
C861        C862   1.404       .  A
C861        H865   1.083       .  S
C862       C1075   1.404       .  A
C862       C1025   1.491       .  S
C863       C1074   1.404       .  A
C863        H866   1.084       .  S
C867        C868   1.402       .  A
C867        C872   1.402       .  A
C867       C1012   1.480       .  S
C868       C1081   1.405       .  A
C868        H873   1.084       .  S
C869       C1080   1.406   1_554  A
C869        C870   1.408       .  A
C869       C1005   1.491       .  S
C870        C871   1.406       .  A
C870        H874   1.083       .  S
C871       C1084   1.403   1_554  A
C871        C899   1.484       .  S
C872       C1083   1.404       .  A
C872        H875   1.084       .  S
N876        C881   1.354   1_556  A
N876        C880   1.355   1_556  A
N876        H908   1.034       .  S
N877        C884   1.352   1_554  A
N877        C885   1.352   1_554  A
N878        C883   1.354   1_556  A
N878        C882   1.354   1_556  A
N878       H1333   1.035   1_545  S
N879        C886   1.352       .  A
N879        C887   1.352       .  A
C880        C888   1.386       .  A
C880        C896   1.418       .  A
C881        C889   1.388       .  A
C882        C890   1.386       .  A
C882        C899   1.417       .  A
C883        C891   1.389       .  A
C884        C896   1.414   1_556  A
C884        C892   1.387       .  A
C885       C1323   1.414   1_556  A
C885        C893   1.387       .  A
C886        C894   1.387       .  A
C886        C897   1.417       .  A
C887        C895   1.387       .  A
C887       C1322   1.416       .  A
C888        C889   1.375       .  A
C888        H900   1.082       .  S
C889        H901   1.082   1_655  S
C890        C891   1.375       .  A
C890        H902   1.082       .  S
C892        C893   1.371       .  A
C892        H904   1.082       .  S
C893        H905   1.082       .  S
C894        C895   1.373       .  A
C894        H906   1.082       .  S
C895        H907   1.082       .  S
C898       C1311   1.416   1_545  A
C898        C912   1.486       .  S
C899       C1309   1.414   1_544  A
H909       N1302   1.034       .  S
C910        C911   1.408       .  A
C910        C915   1.407       .  A
C910        C992   1.494       .  S
C911       C1124   1.406       .  A
C911        H916   1.083       .  S
C912       C1123   1.407       .  A
C912        C913   1.404   1_556  A
C913        C914   1.400       .  A
C913        H917   1.084       .  S
C914       C1127   1.401       .  A
C914        C985   1.479       .  S
C915       C1126   1.401       .  A
C915        H918   1.083       .  S
O919       Zr931   2.458       .  S
O919        C921   1.290       .  A
O920       Zr957   2.412       .  S
O920        C921   1.285       .  A
C921       C1052   1.477       .  S
O922       Zr934   2.460       .  S
O922        C924   1.291       .  A
O923       Zr958   2.407       .  S
O923        C924   1.285       .  A
C924       C1022   1.484       .  S
O925       Zr934   2.449       .  S
O925        C927   1.289       .  A
O926       Zr957   2.424       .  S
O926        C927   1.288       .  A
C927       C1032   1.480       .  S
O928       Zr931   2.447       .  S
O928        C930   1.289       .  A
O929       Zr958   2.420       .  S
O929        C930   1.287       .  A
C930       C1045   1.479       .  S
Zr931       O932   2.433       .  S
Zr931       O933   2.435       .  S
Zr931       O937   2.373       .  S
Zr931       O938   2.373       .  S
Zr931       O961   2.379       .  S
Zr931       O963   2.374       .  S
O932        H975   0.990       .  S
O933        H974   0.989       .  S
O933        H978   0.991       .  S
Zr934       O935   2.436       .  S
Zr934       O936   2.434       .  S
Zr934       O938   2.366       .  S
Zr934       O937   2.375       .  S
Zr934       O962   2.378       .  S
Zr934       O964   2.379       .  S
O935        H976   0.990       .  S
O935        H979   0.990       .  S
O936        H969   0.990       .  S
O937       Zr957   2.378       .  S
O938       Zr958   2.384       .  S
O938        H965   0.967       .  S
O939       Zr951   2.450       .  S
O939        C941   1.289       .  A
O940       Zr958   2.428       .  S
O940        C941   1.287       .  A
C941       C1002   1.481       .  S
O942       Zr954   2.455       .  S
O942        C944   1.290       .  A
O943       Zr957   2.414       .  S
O943        C944   1.285       .  A
C944        C995   1.486       .  S
O945       Zr954   2.449       .  S
O945        C947   1.288       .  A
O946       Zr958   2.426       .  S
O946        C947   1.286       .  A
C947        C982   1.472       .  S
O948       Zr951   2.441       .  S
O948        C950   1.287       .  A
O949       Zr957   2.430       .  S
O949        C950   1.288       .  A
C950       C1015   1.470       .  S
Zr951       O952   2.435       .  S
Zr951       O953   2.435       .  S
Zr951       O959   2.374       .  S
Zr951       O960   2.379       .  S
Zr951       O963   2.375       .  S
Zr951       O961   2.371       .  S
O952        H972   0.990       .  S
O952        H977   0.990       .  S
O953        H973   0.990       .  S
Zr954       O955   2.433       .  S
Zr954       O956   2.435       .  S
Zr954       O960   2.376       .  S
Zr954       O959   2.377       .  S
Zr954       O964   2.377       .  S
Zr954       O962   2.371       .  S
O955        H971   0.990       .  S
O956        H970   0.990       .  S
O956        H980   0.991       .  S
Zr957       O960   2.374       .  S
Zr957       O962   2.380       .  S
Zr957       O963   2.380       .  S
Zr958       O959   2.377       .  S
Zr958       O961   2.378       .  S
Zr958       O964   2.378       .  S
O959        H967   0.967       .  S
O962        H966   0.965       .  S
O963        H968   0.965       .  S
C981        C982   1.403       .  A
C981        C986   1.398       .  A
C981        F988   1.355       .  S
C982        C983   1.404       .  A
C983        C984   1.402       .  A
C983        F990   1.358       .  S
C984        C985   1.407       .  A
C984        F989   1.358       .  S
C985        C986   1.405       .  A
C986        F987   1.358       .  S
C991        C992   1.409       .  A
C991        C996   1.394       .  A
C991        F998   1.358       .  S
C992        C993   1.411       .  A
C993        C994   1.404       .  A
C993       F1000   1.357       .  S
C994        C995   1.409       .  A
C994        F999   1.358       .  S
C995        C996   1.407       .  A
C996        F997   1.357       .  S
C1001      C1002   1.406       .  A
C1001      C1006   1.402       .  A
C1001      F1008   1.358       .  S
C1002      C1003   1.406       .  A
C1003      C1004   1.400       .  A
C1003      F1010   1.358       .  S
C1004      C1005   1.410       .  A
C1004      F1009   1.358       .  S
C1005      C1006   1.409       .  A
C1006      F1007   1.358       .  S
C1011      C1012   1.407       .  A
C1011      C1016   1.402       .  A
C1011      F1018   1.358       .  S
C1012      C1013   1.407       .  A
C1013      C1014   1.397       .  A
C1013      F1020   1.358       .  S
C1014      C1015   1.402       .  A
C1014      F1019   1.357       .  S
C1015      C1016   1.405       .  A
C1016      F1017   1.358       .  S
C1021      C1022   1.410       .  A
C1021      C1026   1.408       .  A
C1021      F1028   1.358       .  S
C1022      C1023   1.406       .  A
C1023      C1024   1.389       .  A
C1023      F1030   1.356       .  S
C1024      C1025   1.407       .  A
C1024      F1029   1.358       .  S
C1025      C1026   1.411       .  A
C1026      F1027   1.357       .  S
C1031      C1032   1.409       .  A
C1031      C1036   1.406       .  A
C1031      F1038   1.358       .  S
C1032      C1033   1.405       .  A
C1033      C1034   1.394       .  A
C1033      F1040   1.359       .  S
C1034      C1035   1.408       .  A
C1034      F1039   1.358       .  S
C1035      C1036   1.408       .  A
C1036      F1037   1.358       .  S
C1041      C1042   1.409       .  A
C1041      C1046   1.396       .  A
C1041      F1048   1.358       .  S
C1042      C1043   1.408       .  A
C1043      C1044   1.402       .  A
C1043      F1050   1.358       .  S
C1044      C1045   1.407       .  A
C1044      F1049   1.358       .  S
C1045      C1046   1.406       .  A
C1046      F1047   1.359       .  S
C1051      C1052   1.407       .  A
C1051      C1056   1.404       .  A
C1051      F1058   1.358       .  S
C1052      C1053   1.405       .  A
C1053      C1054   1.395       .  A
C1053      F1060   1.358       .  S
C1054      C1055   1.406       .  A
C1054      F1059   1.358       .  S
C1055      C1056   1.409       .  A
C1056      F1057   1.358       .  S
C1061      C1062   1.402       .  A
C1061      C1066   1.401       .  A
C1061      C1267   1.481       .  S
C1062      H1067   1.084       .  S
C1063      C1064   1.405       .  A
C1063      C1254   1.485       .  S
C1064      C1065   1.405       .  A
C1064      H1068   1.084       .  S
C1065      C1108   1.482       .  S
C1066      H1069   1.084       .  S
C1070      C1071   1.405       .  A
C1070      C1075   1.401   1_556  A
C1070      C1247   1.489       .  S
C1071      H1076   1.083       .  S
C1072      C1073   1.406       .  A
C1072      C1109   1.483       .  S
C1073      C1074   1.403       .  A
C1073      H1077   1.083       .  S
C1074      C1237   1.490       .  S
C1075      H1078   1.084       .  S
C1079      C1080   1.404       .  A
C1079      C1084   1.401       .  A
C1079      C1224   1.482       .  S
C1080      H1085   1.084       .  S
C1081      C1082   1.408       .  A
C1081      C1217   1.491       .  S
C1082      C1083   1.406       .  A
C1082      H1086   1.083       .  S
C1083      C1111   1.486       .  S
C1084      H1087   1.084       .  S
N1088      C1093   1.355       .  A
N1088      C1092   1.354       .  A
N1088      H1120   1.036       .  S
N1089      C1096   1.352       .  A
N1089      C1097   1.353       .  A
N1090      C1095   1.355       .  A
N1090      C1094   1.355       .  A
N1090      H1545   1.035   1_545  S
N1091      C1098   1.352       .  A
N1091      C1099   1.352       .  A
C1092      C1100   1.387       .  A
C1092      C1108   1.417       .  A
C1093      C1101   1.388       .  A
C1094      C1102   1.386       .  A
C1094      C1111   1.418       .  A
C1095      C1103   1.388       .  A
C1096      C1108   1.415       .  A
C1096      C1104   1.387       .  A
C1097      C1535   1.414       .  A
C1097      C1105   1.386       .  A
C1098      C1106   1.387       .  A
C1098      C1109   1.416       .  A
C1099      C1107   1.387       .  A
C1099      C1534   1.415       .  A
C1100      C1101   1.376       .  A
C1100      H1112   1.082       .  S
C1101      H1113   1.082   1_655  S
C1102      C1103   1.376       .  A
C1102      H1114   1.082       .  S
C1104      C1105   1.372       .  A
C1104      H1116   1.082       .  S
C1105      H1117   1.082       .  S
C1106      C1107   1.371       .  A
C1106      H1118   1.082       .  S
C1107      H1119   1.082       .  S
C1110      C1523   1.416   1_545  A
C1110      C1124   1.485       .  S
C1111      C1521   1.414   1_545  A
H1121      N1514   1.036       .  S
C1122      C1123   1.408       .  A
C1122      C1127   1.408   1_556  A
C1122      C1204   1.493       .  S
C1123      H1128   1.083       .  S
C1124      C1125   1.404       .  A
C1125      C1126   1.400       .  A
C1125      H1129   1.084       .  S
C1126      C1197   1.478       .  S
C1127      H1130   1.084       .  S
O1131     Zr1143   2.452       .  S
O1131      C1133   1.289       .  A
O1132     Zr1169   2.416       .  S
O1132      C1133   1.286       .  A
C1133      C1264   1.474       .  S
O1134     Zr1146   2.463       .  S
O1134      C1136   1.291       .  A
O1135     Zr1170   2.405       .  S
O1135      C1136   1.284       .  A
C1136      C1234   1.483       .  S
O1137     Zr1146   2.451       .  S
O1137      C1139   1.290       .  A
O1138     Zr1169   2.427       .  S
O1138      C1139   1.288       .  A
C1139      C1244   1.483       .  S
O1140     Zr1143   2.452       .  S
O1140      C1142   1.290       .  A
O1141     Zr1170   2.424       .  S
O1141      C1142   1.287       .  A
C1142      C1257   1.481       .  S
Zr1143     O1144   2.434       .  S
Zr1143     O1145   2.435       .  S
Zr1143     O1149   2.377       .  S
Zr1143     O1150   2.372       .  S
Zr1143     O1173   2.379       .  S
Zr1143     O1175   2.374       .  S
O1144      H1187   0.990       .  S
O1145      H1186   0.989       .  S
O1145      H1190   0.991       .  S
Zr1146     O1147   2.436       .  S
Zr1146     O1148   2.436       .  S
Zr1146     O1150   2.369       .  S
Zr1146     O1149   2.379       .  S
Zr1146     O1174   2.378       .  S
Zr1146     O1176   2.380       .  S
O1147      H1188   0.990       .  S
O1147      H1191   0.990       .  S
O1148      H1181   0.990       .  S
O1149     Zr1169   2.382       .  S
O1150     Zr1170   2.382       .  S
O1150      H1177   0.967       .  S
O1151     Zr1163   2.448       .  S
O1151      C1153   1.289       .  A
O1152     Zr1170   2.426       .  S
O1152      C1153   1.287       .  A
C1153      C1214   1.480       .  S
O1154     Zr1166   2.450       .  S
O1154      C1156   1.289       .  A
O1155     Zr1169   2.414       .  S
O1155      C1156   1.286       .  A
C1156      C1207   1.484       .  S
O1157     Zr1166   2.445       .  S
O1157      C1159   1.287       .  A
O1158     Zr1170   2.425       .  S
O1158      C1159   1.286       .  A
C1159      C1194   1.471       .  S
O1160     Zr1163   2.441       .  S
O1160      C1162   1.286       .  A
O1161     Zr1169   2.435       .  S
O1161      C1162   1.289       .  A
C1162      C1227   1.473       .  S
Zr1163     O1164   2.436       .  S
Zr1163     O1165   2.435       .  S
Zr1163     O1171   2.374       .  S
Zr1163     O1172   2.377       .  S
Zr1163     O1175   2.375       .  S
Zr1163     O1173   2.376       .  S
O1164      H1184   0.990       .  S
O1164      H1189   0.990       .  S
O1165      H1185   0.990       .  S
Zr1166     O1167   2.434       .  S
Zr1166     O1168   2.434       .  S
Zr1166     O1172   2.375       .  S
Zr1166     O1171   2.375       .  S
Zr1166     O1176   2.378       .  S
Zr1166     O1174   2.368       .  S
O1167      H1183   0.990       .  S
O1168      H1182   0.990       .  S
O1168      H1192   0.991       .  S
Zr1169     O1172   2.375       .  S
Zr1169     O1174   2.382       .  S
Zr1169     O1175   2.380       .  S
Zr1170     O1171   2.379       .  S
Zr1170     O1173   2.380       .  S
Zr1170     O1176   2.380       .  S
O1171      H1179   0.967       .  S
O1174      H1178   0.966       .  S
O1175      H1180   0.965       .  S
C1193      C1194   1.403       .  A
C1193      C1198   1.399       .  A
C1193      F1200   1.356       .  S
C1194      C1195   1.404       .  A
C1195      C1196   1.401       .  A
C1195      F1202   1.358       .  S
C1196      C1197   1.406       .  A
C1196      F1201   1.358       .  S
C1197      C1198   1.405       .  A
C1198      F1199   1.358       .  S
C1203      C1204   1.409       .  A
C1203      C1208   1.394       .  A
C1203      F1210   1.358       .  S
C1204      C1205   1.411       .  A
C1205      C1206   1.404       .  A
C1205      F1212   1.357       .  S
C1206      C1207   1.409       .  A
C1206      F1211   1.358       .  S
C1207      C1208   1.406       .  A
C1208      F1209   1.356       .  S
C1213      C1214   1.406       .  A
C1213      C1218   1.401       .  A
C1213      F1220   1.358       .  S
C1214      C1215   1.406       .  A
C1215      C1216   1.399       .  A
C1215      F1222   1.359       .  S
C1216      C1217   1.411       .  A
C1216      F1221   1.358       .  S
C1217      C1218   1.409       .  A
C1218      F1219   1.358       .  S
C1223      C1224   1.408       .  A
C1223      C1228   1.404       .  A
C1223      F1230   1.358       .  S
C1224      C1225   1.406       .  A
C1225      C1226   1.397       .  A
C1225      F1232   1.358       .  S
C1226      C1227   1.401       .  A
C1226      F1231   1.356       .  S
C1227      C1228   1.406       .  A
C1228      F1229   1.358       .  S
C1233      C1234   1.409       .  A
C1233      C1238   1.407       .  A
C1233      F1240   1.358       .  S
C1234      C1235   1.406       .  A
C1235      C1236   1.390       .  A
C1235      F1242   1.356       .  S
C1236      C1237   1.407       .  A
C1236      F1241   1.358       .  S
C1237      C1238   1.411       .  A
C1238      F1239   1.357       .  S
C1243      C1244   1.409       .  A
C1243      C1248   1.405       .  A
C1243      F1250   1.358       .  S
C1244      C1245   1.405       .  A
C1245      C1246   1.395       .  A
C1245      F1252   1.359       .  S
C1246      C1247   1.409       .  A
C1246      F1251   1.358       .  S
C1247      C1248   1.407       .  A
C1248      F1249   1.358       .  S
C1253      C1254   1.407       .  A
C1253      C1258   1.398       .  A
C1253      F1260   1.358       .  S
C1254      C1255   1.407       .  A
C1255      C1256   1.402       .  A
C1255      F1262   1.358       .  S
C1256      C1257   1.408       .  A
C1256      F1261   1.358       .  S
C1257      C1258   1.407       .  A
C1258      F1259   1.358       .  S
C1263      C1264   1.406       .  A
C1263      C1268   1.403       .  A
C1263      F1270   1.358       .  S
C1264      C1265   1.404       .  A
C1265      C1266   1.394       .  A
C1265      F1272   1.358       .  S
C1266      C1267   1.405       .  A
C1266      F1271   1.358       .  S
C1267      C1268   1.408       .  A
C1268      F1269   1.358       .  S
C1273      C1274   1.404       .  A
C1273      C1278   1.403       .  A
C1273      C1479   1.485       .  S
C1274      C1487   1.404       .  A
C1274      H1279   1.084       .  S
C1275      C1486   1.402   1_554  A
C1275      C1276   1.405       .  A
C1275      C1466   1.486       .  S
C1276      C1277   1.405       .  A
C1276      H1280   1.083       .  S
C1277      C1490   1.405   1_554  A
C1277      C1320   1.484       .  S
C1278      C1489   1.404       .  A
C1278      H1281   1.084       .  S
C1282      C1283   1.406       .  A
C1282      C1287   1.403       .  A
C1282      C1459   1.491       .  S
C1283      C1496   1.407       .  A
C1283      H1288   1.083       .  S
C1284      C1495   1.409       .  A
C1284      C1285   1.405   1_556  A
C1284      C1321   1.485       .  S
C1285      C1286   1.400       .  A
C1285      H1289   1.084       .  S
C1286      C1499   1.403       .  A
C1286      C1449   1.482       .  S
C1287      C1498   1.403       .  A
C1287      H1290   1.084       .  S
C1291      C1292   1.399       .  A
C1291      C1296   1.400       .  A
C1291      C1436   1.474       .  S
C1292      C1505   1.405       .  A
C1292      H1297   1.084       .  S
C1293      C1504   1.406   1_554  A
C1293      C1294   1.408       .  A
C1293      C1429   1.491       .  S
C1294      C1295   1.406   1_554  A
C1294      H1298   1.083       .  S
C1295      C1508   1.403       .  A
C1295      C1323   1.484   1_556  S
C1296      C1507   1.403       .  A
C1296      H1299   1.084       .  S
N1300      C1305   1.354   1_556  A
N1300      C1304   1.354   1_556  A
N1300      H1332   1.034       .  S
N1301      C1308   1.352   1_554  A
N1301      C1309   1.352   1_554  A
N1302      C1307   1.355   1_556  A
N1302      C1306   1.354   1_556  A
N1303      C1310   1.352       .  A
N1303      C1311   1.352       .  A
C1304      C1312   1.387       .  A
C1304      C1320   1.418       .  A
C1305      C1313   1.388       .  A
C1306      C1314   1.386       .  A
C1306      C1323   1.418       .  A
C1307      C1315   1.388       .  A
C1308      C1320   1.415   1_556  A
C1308      C1316   1.387       .  A
C1309      C1317   1.387       .  A
C1310      C1318   1.387       .  A
C1310      C1321   1.416       .  A
C1311      C1319   1.387       .  A
C1312      C1313   1.376       .  A
C1312      H1324   1.082       .  S
C1313      H1325   1.082   1_655  S
C1314      C1315   1.375       .  A
C1314      H1326   1.082       .  S
C1316      C1317   1.371       .  A
C1316      H1328   1.082       .  S
C1317      H1329   1.082       .  S
C1318      C1319   1.373       .  A
C1318      H1330   1.082       .  S
C1319      H1331   1.082       .  S
C1322      C1336   1.488       .  S
C1334      C1335   1.408       .  A
C1334      C1339   1.406       .  A
C1334      C1416   1.491       .  S
C1335      C1548   1.407       .  A
C1335      H1340   1.083       .  S
C1336      C1547   1.407       .  A
C1336      C1337   1.405   1_556  A
C1337      C1338   1.401       .  A
C1337      H1341   1.084       .  S
C1338      C1551   1.400       .  A
C1338      C1409   1.474       .  S
C1339      C1550   1.399       .  A
C1339      H1342   1.084       .  S
O1343     Zr1355   2.454       .  S
O1343      C1345   1.289       .  A
O1344     Zr1381   2.416       .  S
O1344      C1345   1.286       .  A
C1345      C1476   1.477       .  S
O1346     Zr1358   2.457       .  S
O1346      C1348   1.290       .  A
O1347     Zr1382   2.407       .  S
O1347      C1348   1.284       .  A
C1348      C1446   1.477       .  S
O1349     Zr1358   2.454       .  S
O1349      C1351   1.290       .  A
O1350     Zr1381   2.433       .  S
O1350      C1351   1.289       .  A
C1351      C1456   1.487       .  S
O1352     Zr1355   2.445       .  S
O1352      C1354   1.289       .  A
O1353     Zr1382   2.423       .  S
O1353      C1354   1.287       .  A
C1354      C1469   1.479       .  S
Zr1355     O1356   2.434       .  S
Zr1355     O1357   2.436       .  S
Zr1355     O1361   2.377       .  S
Zr1355     O1362   2.376       .  S
Zr1355     O1385   2.377       .  S
Zr1355     O1387   2.372       .  S
O1356      H1399   0.990       .  S
O1357      H1398   0.989       .  S
O1357      H1402   0.991       .  S
Zr1358     O1359   2.435       .  S
Zr1358     O1360   2.435       .  S
Zr1358     O1362   2.370       .  S
Zr1358     O1361   2.376       .  S
Zr1358     O1386   2.379       .  S
Zr1358     O1388   2.381       .  S
O1359      H1400   0.990       .  S
O1359      H1403   0.990       .  S
O1360      H1393   0.990       .  S
O1361     Zr1381   2.379       .  S
O1362     Zr1382   2.384       .  S
O1362      H1389   0.967       .  S
O1363     Zr1375   2.459       .  S
O1363      C1365   1.291       .  A
O1364     Zr1382   2.423       .  S
O1364      C1365   1.286       .  A
C1365      C1426   1.483       .  S
O1366     Zr1378   2.452       .  S
O1366      C1368   1.290       .  A
O1367     Zr1381   2.415       .  S
O1367      C1368   1.286       .  A
C1368      C1419   1.483       .  S
O1369     Zr1378   2.444       .  S
O1369      C1371   1.287       .  A
O1370     Zr1382   2.427       .  S
O1370      C1371   1.287       .  A
C1371      C1406   1.469       .  S
O1372     Zr1375   2.445       .  S
O1372      C1374   1.288       .  A
O1373     Zr1381   2.425       .  S
O1373      C1374   1.286       .  A
C1374      C1439   1.468       .  S
Zr1375     O1376   2.435       .  S
Zr1375     O1377   2.435       .  S
Zr1375     O1383   2.372       .  S
Zr1375     O1384   2.379       .  S
Zr1375     O1387   2.375       .  S
Zr1375     O1385   2.371       .  S
O1376      H1396   0.990       .  S
O1376      H1401   0.990       .  S
O1377      H1397   0.990       .  S
Zr1378     O1379   2.434       .  S
Zr1378     O1380   2.435       .  S
Zr1378     O1384   2.371       .  S
Zr1378     O1383   2.376       .  S
Zr1378     O1388   2.376       .  S
Zr1378     O1386   2.373       .  S
O1379      H1395   0.990       .  S
O1380      H1394   0.990       .  S
O1380      H1404   0.991       .  S
Zr1381     O1384   2.375       .  S
Zr1381     O1386   2.380       .  S
Zr1381     O1387   2.383       .  S
Zr1382     O1383   2.376       .  S
Zr1382     O1385   2.378       .  S
Zr1382     O1388   2.379       .  S
O1383      H1391   0.967       .  S
O1386      H1390   0.965       .  S
O1387      H1392   0.965       .  S
C1405      C1406   1.403       .  A
C1405      C1410   1.399       .  A
C1405      F1412   1.356       .  S
C1406      C1407   1.404       .  A
C1407      C1408   1.401       .  A
C1407      F1414   1.358       .  S
C1408      C1409   1.405       .  A
C1408      F1413   1.358       .  S
C1409      C1410   1.404       .  A
C1410      F1411   1.358       .  S
C1415      C1416   1.409       .  A
C1415      C1420   1.395       .  A
C1415      F1422   1.358       .  S
C1416      C1417   1.410       .  A
C1417      C1418   1.404       .  A
C1417      F1424   1.357       .  S
C1418      C1419   1.408       .  A
C1418      F1423   1.358       .  S
C1419      C1420   1.406       .  A
C1420      F1421   1.357       .  S
C1425      C1426   1.407       .  A
C1425      C1430   1.403       .  A
C1425      F1432   1.358       .  S
C1426      C1427   1.407       .  A
C1427      C1428   1.400       .  A
C1427      F1434   1.358       .  S
C1428      C1429   1.409       .  A
C1428      F1433   1.358       .  S
C1429      C1430   1.409       .  A
C1430      F1431   1.358       .  S
C1435      C1436   1.404       .  A
C1435      C1440   1.400       .  A
C1435      F1442   1.357       .  S
C1436      C1437   1.405       .  A
C1437      C1438   1.398       .  A
C1437      F1444   1.358       .  S
C1438      C1439   1.403       .  A
C1438      F1443   1.357       .  S
C1439      C1440   1.404       .  A
C1440      F1441   1.358       .  S
C1445      C1446   1.408       .  A
C1445      C1450   1.406       .  A
C1445      F1452   1.358       .  S
C1446      C1447   1.404       .  A
C1447      C1448   1.390       .  A
C1447      F1454   1.355       .  S
C1448      C1449   1.405       .  A
C1448      F1453   1.359       .  S
C1449      C1450   1.408       .  A
C1450      F1451   1.357       .  S
C1455      C1456   1.411       .  A
C1455      C1460   1.406       .  A
C1455      F1462   1.357       .  S
C1456      C1457   1.406       .  A
C1457      C1458   1.397       .  A
C1457      F1464   1.358       .  S
C1458      C1459   1.410       .  A
C1458      F1463   1.358       .  S
C1459      C1460   1.408       .  A
C1460      F1461   1.358       .  S
C1465      C1466   1.409       .  A
C1465      C1470   1.397       .  A
C1465      F1472   1.358       .  S
C1466      C1467   1.408       .  A
C1467      C1468   1.402       .  A
C1467      F1474   1.358       .  S
C1468      C1469   1.408       .  A
C1468      F1473   1.358       .  S
C1469      C1470   1.406       .  A
C1470      F1471   1.359       .  S
C1475      C1476   1.406       .  A
C1475      C1480   1.403       .  A
C1475      F1482   1.358       .  S
C1476      C1477   1.405       .  A
C1477      C1478   1.396       .  A
C1477      F1484   1.358       .  S
C1478      C1479   1.407       .  A
C1478      F1483   1.358       .  S
C1479      C1480   1.409       .  A
C1480      F1481   1.358       .  S
C1485      C1486   1.403       .  A
C1485      C1490   1.404       .  A
C1485      C1691   1.484       .  S
C1486      H1491   1.084       .  S
C1487      C1488   1.406       .  A
C1487      C1678   1.486       .  S
C1488      C1489   1.404       .  A
C1488      H1492   1.084       .  S
C1489      C1532   1.484       .  S
C1490      H1493   1.084       .  S
C1494      C1495   1.408       .  A
C1494      C1499   1.402   1_556  A
C1494      C1671   1.493       .  S
C1495      H1500   1.083       .  S
C1496      C1497   1.408       .  A
C1496      C1533   1.487       .  S
C1497      C1498   1.404       .  A
C1497      H1501   1.084       .  S
C1498      C1661   1.488       .  S
C1499      H1502   1.084       .  S
C1503      C1504   1.401       .  A
C1503      C1508   1.399       .  A
C1503      C1648   1.474       .  S
C1504      H1509   1.084       .  S
C1505      C1506   1.410       .  A
C1505      C1641   1.492       .  S
C1506      C1507   1.408       .  A
C1506      H1510   1.083       .  S
C1507      C1535   1.486       .  S
C1508      H1511   1.084       .  S
N1512      C1517   1.354       .  A
N1512      C1516   1.354       .  A
N1512      H1544   1.035       .  S
N1513      C1520   1.352       .  A
N1513      C1521   1.352       .  A
N1514      C1519   1.354       .  A
N1514      C1518   1.355       .  A
N1515      C1522   1.352       .  A
N1515      C1523   1.352       .  A
C1516      C1524   1.386       .  A
C1516      C1532   1.417       .  A
C1517      C1525   1.388       .  A
C1518      C1526   1.386       .  A
C1518      C1535   1.417       .  A
C1519      C1527   1.389       .  A
C1520      C1532   1.414       .  A
C1520      C1528   1.387       .  A
C1521      C1529   1.387       .  A
C1522      C1530   1.387       .  A
C1522      C1533   1.416       .  A
C1523      C1531   1.387       .  A
C1524      C1525   1.376       .  A
C1524      H1536   1.082       .  S
C1525      H1537   1.082   1_655  S
C1526      C1527   1.375       .  A
C1526      H1538   1.082       .  S
C1528      C1529   1.371       .  A
C1528      H1540   1.082       .  S
C1529      H1541   1.082       .  S
C1530      C1531   1.372       .  A
C1530      H1542   1.082       .  S
C1531      H1543   1.082   1_565  S
C1534      C1548   1.486       .  S
C1546      C1547   1.408       .  A
C1546      C1551   1.405   1_556  A
C1546      C1628   1.490       .  S
C1547      H1552   1.083       .  S
C1548      C1549   1.404       .  A
C1549      C1550   1.399       .  A
C1549      H1553   1.084       .  S
C1550      C1621   1.473       .  S
C1551      H1554   1.084       .  S
O1555     Zr1567   2.459       .  S
O1555      C1557   1.291       .  A
O1556     Zr1593   2.407       .  S
O1556      C1557   1.284       .  A
C1557      C1688   1.476       .  S
O1558     Zr1570   2.458       .  S
O1558      C1560   1.290       .  A
O1559     Zr1594   2.415       .  S
O1559      C1560   1.286       .  A
C1560      C1658   1.481       .  S
O1561     Zr1570   2.453       .  S
O1561      C1563   1.290       .  A
O1562     Zr1593   2.429       .  S
O1562      C1563   1.288       .  A
C1563      C1668   1.486       .  S
O1564     Zr1567   2.448       .  S
O1564      C1566   1.289       .  A
O1565     Zr1594   2.419       .  S
O1565      C1566   1.286       .  A
C1566      C1681   1.478       .  S
Zr1567     O1568   2.436       .  S
Zr1567     O1569   2.438       .  S
Zr1567     O1573   2.374       .  S
Zr1567     O1574   2.374       .  S
Zr1567     O1597   2.380       .  S
Zr1567     O1599   2.374       .  S
O1568      H1611   0.990       .  S
O1569      H1610   0.989       .  S
O1569      H1614   0.991       .  S
Zr1570     O1571   2.436       .  S
Zr1570     O1572   2.433       .  S
Zr1570     O1574   2.368       .  S
Zr1570     O1573   2.376       .  S
Zr1570     O1598   2.379       .  S
Zr1570     O1600   2.381       .  S
O1571      H1612   0.990       .  S
O1571      H1615   0.990       .  S
O1572      H1605   0.990       .  S
O1573     Zr1593   2.379       .  S
O1574     Zr1594   2.380       .  S
O1574      H1601   0.967       .  S
O1575     Zr1587   2.454       .  S
O1575      C1577   1.290       .  A
O1576     Zr1594   2.422       .  S
O1576      C1577   1.286       .  A
C1577      C1638   1.481       .  S
O1578     Zr1590   2.465       .  S
O1578      C1580   1.292       .  A
O1579     Zr1593   2.415       .  S
O1579      C1580   1.285       .  A
C1580      C1631   1.486       .  S
O1581     Zr1590   2.450       .  S
O1581      C1583   1.288       .  A
O1582     Zr1594   2.422       .  S
O1582      C1583   1.285       .  A
C1583      C1618   1.469       .  S
O1584     Zr1587   2.446       .  S
O1584      C1586   1.288       .  A
O1585     Zr1593   2.421       .  S
O1585      C1586   1.285       .  A
C1586      C1651   1.467       .  S
Zr1587     O1588   2.436       .  S
Zr1587     O1589   2.435       .  S
Zr1587     O1595   2.373       .  S
Zr1587     O1596   2.381       .  S
Zr1587     O1599   2.374       .  S
Zr1587     O1597   2.373       .  S
O1588      H1608   0.990       .  S
O1588      H1613   0.990       .  S
O1589      H1609   0.990       .  S
Zr1590     O1591   2.434       .  S
Zr1590     O1592   2.433       .  S
Zr1590     O1596   2.374       .  S
Zr1590     O1595   2.378       .  S
Zr1590     O1600   2.379       .  S
Zr1590     O1598   2.371       .  S
O1591      H1607   0.990       .  S
O1592      H1606   0.990       .  S
O1592      H1616   0.990       .  S
Zr1593     O1596   2.377       .  S
Zr1593     O1598   2.379       .  S
Zr1593     O1599   2.384       .  S
Zr1594     O1595   2.380       .  S
Zr1594     O1597   2.380       .  S
Zr1594     O1600   2.379       .  S
O1595      H1603   0.967       .  S
O1598      H1602   0.965       .  S
O1599      H1604   0.965       .  S
C1617      C1618   1.404       .  A
C1617      C1622   1.400       .  A
C1617      F1624   1.357       .  S
C1618      C1619   1.404       .  A
C1619      C1620   1.399       .  A
C1619      F1626   1.358       .  S
C1620      C1621   1.404       .  A
C1620      F1625   1.358       .  S
C1621      C1622   1.404       .  A
C1622      F1623   1.358       .  S
C1627      C1628   1.408       .  A
C1627      C1632   1.397       .  A
C1627      F1634   1.359       .  S
C1628      C1629   1.408       .  A
C1629      C1630   1.405       .  A
C1629      F1636   1.358       .  S
C1630      C1631   1.409       .  A
C1630      F1635   1.357       .  S
C1631      C1632   1.408       .  A
C1632      F1633   1.357       .  S
C1637      C1638   1.406       .  A
C1637      C1642   1.403       .  A
C1637      F1644   1.358       .  S
C1638      C1639   1.406       .  A
C1639      C1640   1.399       .  A
C1639      F1646   1.358       .  S
C1640      C1641   1.411       .  A
C1640      F1645   1.358       .  S
C1641      C1642   1.410       .  A
C1642      F1643   1.358       .  S
C1647      C1648   1.405       .  A
C1647      C1652   1.401       .  A
C1647      F1654   1.358       .  S
C1648      C1649   1.404       .  A
C1649      C1650   1.398       .  A
C1649      F1656   1.358       .  S
C1650      C1651   1.403       .  A
C1650      F1655   1.357       .  S
C1651      C1652   1.404       .  A
C1652      F1653   1.358       .  S
C1657      C1658   1.409       .  A
C1657      C1662   1.408       .  A
C1657      F1664   1.358       .  S
C1658      C1659   1.404       .  A
C1659      C1660   1.393       .  A
C1659      F1666   1.356       .  S
C1660      C1661   1.407       .  A
C1660      F1665   1.358       .  S
C1661      C1662   1.409       .  A
C1662      F1663   1.357       .  S
C1667      C1668   1.410       .  A
C1667      C1672   1.406       .  A
C1667      F1674   1.358       .  S
C1668      C1669   1.406       .  A
C1669      C1670   1.397       .  A
C1669      F1676   1.358       .  S
C1670      C1671   1.411       .  A
C1670      F1675   1.358       .  S
C1671      C1672   1.409       .  A
C1672      F1673   1.358       .  S
C1677      C1678   1.408       .  A
C1677      C1682   1.397       .  A
C1677      F1684   1.358       .  S
C1678      C1679   1.408       .  A
C1679      C1680   1.401       .  A
C1679      F1686   1.358       .  S
C1680      C1681   1.406       .  A
C1680      F1685   1.358       .  S
C1681      C1682   1.406       .  A
C1682      F1683   1.359       .  S
C1687      C1688   1.406       .  A
C1687      C1692   1.402       .  A
C1687      F1694   1.358       .  S
C1688      C1689   1.406       .  A
C1689      C1690   1.395       .  A
C1689      F1696   1.359       .  S
C1690      C1691   1.407       .  A
C1690      F1695   1.358       .  S
C1691      C1692   1.409       .  A
C1692      F1693   1.358       .  S
