geometry optimzed in LAMMPS
_audit_creation_date              2020-11-30 
_audit_creation_method            'lammps2cif' 
_symmetry_space_group_name_H-M    'P1' 
_symmetry_Int_Tables_number       1 
_symmetry_cell_setting            triclinic 
loop_ 
_symmetry_equiv_pos_as_xyz 
  x,y,z 
_cell_length_a                    35.75111936 
_cell_length_b                    35.75548211549723 
_cell_length_c                    35.75540316342153 
_cell_angle_alpha                 89.9969170930045 
_cell_angle_beta                  89.983339831263 
_cell_angle_gamma                 90.01054441257571 
loop_ 
_atom_site_label 
_atom_site_type_symbol 
_atom_site_fract_x 
_atom_site_fract_y 
_atom_site_fract_z 
_atom_site_charge 
C1          C  0.49530257  0.37448007  0.08397597     0.45100
N2          N  0.47849068  0.41615027  0.04455883     0.04000
C3          C  0.59693288  0.53171876  0.94277451    -0.03900
H4          H  0.60211382  0.55933832  0.07608739     0.09500
C5          C  0.45714756  0.59670022  0.07033973    -0.04200
Co6        Co  0.54463309  0.44934546  0.00565368     0.74200
N7          N  0.57017648  0.51704804  0.04721867    -0.23400
Co8        Co  0.53993898  0.54597732  0.00680412     0.74100
C9          C  0.49000212  0.61452713  0.08650545     0.45200
N10         N  0.41443825  0.50947025  0.04483155     0.03600
N11         N  0.50787688  0.57337070  0.04694222     0.03700
N12         N  0.59929813  0.46845148  0.94296816    -0.44300
H13         H  0.55768094  0.38583242  0.07345934     0.09500
N14         N  0.57193502  0.48015188  0.04698859     0.04000
N15         N  0.50931468  0.57413758  0.96613048     0.03700
C16         C  0.49287832  0.61534548  0.92606841     0.45300
N17         N  0.41625800  0.47257382  0.04423263    -0.22900
C18         C  0.53032412  0.39428367  0.93985389    -0.03800
N19         N  0.46535300  0.38975187  0.06696689    -0.44000
N20         N  0.52267282  0.60005431  0.94330648    -0.44200
C21         C  0.49740905  0.37670427  0.92348433     0.45100
N22         N  0.57323824  0.48109202  0.96605340     0.04000
N23         N  0.41749095  0.47355147  0.96374490    -0.22900
N24         N  0.51538762  0.41807743  0.04500936    -0.23400
N25         N  0.41578165  0.51044146  0.96389259     0.03600
H26         H  0.38561008  0.43127519  0.93482684     0.09500
H27         H  0.43036700  0.60454199  0.93665062     0.09500
N28         N  0.57161590  0.51798675  0.96679544    -0.23400
N29         N  0.47097506  0.57168837  0.04607312    -0.23100
N30         N  0.47969982  0.41727300  0.96374969     0.04000
C31         C  0.61284663  0.49695774  0.08732805     0.45400
C32         C  0.39096737  0.45880623  0.06825447    -0.04300
N33         N  0.47240287  0.57242434  0.96567598    -0.23100
H34         H  0.42792886  0.60389740  0.07347862     0.09500
N35         N  0.59773497  0.46703926  0.07009080    -0.44300
H36         H  0.38392193  0.42957618  0.07161121     0.09500
C37         C  0.37495618  0.49362944  0.92350456     0.45200
C38         C  0.52853716  0.39282842  0.06935224    -0.03800
Co39       Co  0.44777341  0.44454242  0.00407515     0.73800
N40         N  0.38814766  0.52202486  0.06772129    -0.44000
C41         C  0.61480616  0.49878932  0.92686899     0.45500
N42         N  0.46710266  0.39175954  0.94005593    -0.44000
Co43       Co  0.44304513  0.54123144  0.00512246     0.73900
C44         C  0.45946221  0.59749231  0.94099855    -0.04300
C45         C  0.59498313  0.53021166  0.07205993    -0.03900
N46         N  0.51660599  0.41895044  0.96455036    -0.23400
N47         N  0.52037615  0.59924904  0.07027403    -0.44200
H48         H  0.60402874  0.56093452  0.93938363     0.09500
C49         C  0.39273951  0.46039692  0.93886696    -0.04300
Cl50       Cl  0.49384620  0.49526783  0.00543159    -0.47300
C51         C  0.37275011  0.49165881  0.08392352     0.45200
H52         H  0.55953707  0.38721884  0.93639048     0.09500
N53         N  0.39004826  0.52356258  0.94072696    -0.44000
N54         N  0.19430796  0.49643212  0.20537877    -0.00800
C55         C  0.23180050  0.49654287  0.20006030     0.01800
C56         C  0.25046234  0.49916213  0.23374048    -0.21100
C57         C  0.22347373  0.50064125  0.26102702    -0.21300
C58         C  0.18948352  0.49883195  0.24284761     0.01700
H59         H  0.28043284  0.49993171  0.23798641     0.15400
H60         H  0.22811792  0.50274553  0.29087323     0.15500
N61         N  0.79239922  0.49454386  0.20728379    -0.00800
C62         C  0.75482970  0.49411848  0.20243110     0.01800
C63         C  0.73653436  0.49425323  0.23641691    -0.21100
C64         C  0.76381193  0.49475765  0.26342781    -0.21300
C65         C  0.79762957  0.49487412  0.24481161     0.01700
H66         H  0.70660674  0.49408514  0.24104502     0.15400
H67         H  0.75946741  0.49502121  0.29339355     0.15500
N68         N  0.19493271  0.49732496  0.80457377    -0.00800
C69         C  0.18978475  0.49879334  0.76711307     0.01800
C70         C  0.22358672  0.50130722  0.74865440    -0.21100
C71         C  0.25078062  0.50130301  0.77577243    -0.21300
C72         C  0.23242651  0.49880310  0.80963712     0.01700
H73         H  0.22798738  0.50272020  0.71873157     0.15400
H74         H  0.28069620  0.50269027  0.77128108     0.15500
N75         N  0.79098022  0.49625829  0.80198803    -0.00800
C76         C  0.79592971  0.49586750  0.76442911     0.01800
C77         C  0.76197463  0.49537397  0.74606775    -0.21100
C78         C  0.73488878  0.49540945  0.77330067    -0.21300
C79         C  0.75345040  0.49595527  0.80713353     0.01700
H80         H  0.75741477  0.49486954  0.71613814     0.15400
H81         H  0.70492710  0.49497673  0.76892152     0.15500
N82         N  0.99213832  0.48819724  0.94602401    -0.34000
N83         N  0.93439223  0.49490275  0.00410826    -0.54500
N84         N  0.99257402  0.49382870  0.06232252    -0.34000
N85         N  0.05040344  0.49306860  0.00421960    -0.54500
C86         C  0.96165862  0.49458183  0.92431329     0.29600
C87         C  0.02293170  0.49313345  0.92440624     0.29600
C88         C  0.96198496  0.49982568  0.08389217     0.29600
C89         C  0.02328801  0.49950667  0.08383058     0.29600
C90         C  0.91192556  0.49097852  0.97378632     0.38200
C91         C  0.91213287  0.49260198  0.03475588     0.38200
C92         C  0.07255262  0.48781915  0.97391223     0.38200
C93         C  0.07279726  0.49079742  0.03474067     0.38200
C94         C  0.97330475  0.50274647  0.88819453    -0.19300
C95         C  0.01180881  0.50183651  0.88825371    -0.19300
C96         C  0.97346673  0.50903529  0.11982395    -0.19300
C97         C  0.01200302  0.50888016  0.11977170    -0.19300
C98         C  0.87513750  0.48678102  0.98528622    -0.20300
C99         C  0.87527116  0.48775489  0.02371258    -0.20300
C100        C  0.10928249  0.48272323  0.98528468    -0.20300
C101        C  0.10944639  0.48467444  0.02364148    -0.20300
C102        C  0.92362486  0.49273965  0.93582500    -0.15700
C103        C  0.06078471  0.48955604  0.93602644    -0.15700
C104        C  0.06115398  0.49524125  0.07247049    -0.15700
C105        C  0.92403517  0.49610964  0.07256573    -0.15700
H106        H  0.95589718  0.50911240  0.86426425     0.17200
H107        H  0.02958841  0.50739141  0.86438200     0.17200
H108        H  0.95591845  0.51525680  0.14369698     0.17200
H109        H  0.02967721  0.51493050  0.14359147     0.17200
H110        H  0.85065115  0.48346098  0.96781089     0.15500
H111        H  0.85088165  0.48536496  0.04148473     0.15500
H112        H  0.13357012  0.47831561  0.96775934     0.15500
H113        H  0.13386771  0.48200149  0.04131766     0.15500
H114        H  0.99197550  0.47975598  0.97365113     0.28800
H115        H  0.99241513  0.48476383  0.03489944     0.28800
C116        C  0.07637857  0.50015109  0.38583348     0.45100
N117        N  0.03668188  0.48230797  0.42687824     0.04000
C118        C  0.92850916  0.59697356  0.53994178    -0.03900
H119        H  0.06246506  0.60561670  0.57051483     0.09500
C120        C  0.05946701  0.46205261  0.60779969    -0.04200
Co121      Co  0.99505021  0.54714101  0.45902449     0.74200
N122        N  0.03429278  0.57385276  0.52763179    -0.23400
Co123      Co  0.99413207  0.54253664  0.55589486     0.74100
C124        C  0.07423443  0.49533505  0.62595973     0.45200
N125        N  0.03681307  0.41863428  0.52038885     0.03600
N126        N  0.03474167  0.51200006  0.58426653     0.03700
N127        N  0.93039785  0.59970081  0.47677097    -0.44300
H128        H  0.06368776  0.56220664  0.39668084     0.09500
N129        N  0.03485331  0.57560401  0.49073837     0.04000
N130        N  0.95388390  0.51070093  0.58353839     0.03700
C131        C  0.91407010  0.49285666  0.62449022     0.45300
N132        N  0.03691621  0.42039934  0.48349514    -0.22900
C133        C  0.93108771  0.53094539  0.40238676    -0.03800
N134        N  0.05994859  0.46978546  0.40094095    -0.44000
N135        N  0.93047156  0.52323561  0.60936109    -0.44200
C136        C  0.91612937  0.49757226  0.38449237     0.45100
N137        N  0.95384588  0.57425566  0.48990704     0.04000
N138        N  0.95631363  0.41916178  0.48268197    -0.22900
N139        N  0.03598330  0.51919134  0.42865022    -0.23400
N140        N  0.95577092  0.41734455  0.51957666     0.03600
H141        H  0.92834463  0.38732210  0.43972863     0.09500
H142        H  0.92680936  0.43078364  0.61370210     0.09500
N143        N  0.95369033  0.57254022  0.52680333    -0.23400
N144        N  0.03509671  0.47510218  0.58251200    -0.23100
N145        N  0.95584422  0.48104236  0.42602925     0.04000
C146        C  0.07472825  0.61662976  0.50836950     0.45400
C147        C  0.06211190  0.39600142  0.47029165    -0.04300
N148        N  0.95462957  0.47380633  0.58179382    -0.23100
H149        H  0.06352729  0.43294676  0.61495916     0.09500
N150        N  0.05818959  0.60145229  0.47808080    -0.44300
H151        H  0.06631181  0.38907097  0.44114648     0.09500
C152        C  0.91610773  0.37617555  0.50184651     0.45200
C153        C  0.06040142  0.53298513  0.40379319    -0.03800
Co154      Co  0.99644430  0.45048591  0.45444954     0.73800
N155        N  0.06033851  0.39318226  0.53345673    -0.44000
C156        C  0.91297890  0.61456775  0.50669146     0.45500
N157        N  0.93313945  0.46772534  0.39996826    -0.44000
Co158      Co  0.99557737  0.44584272  0.55128755     0.73900
C159        C  0.93017152  0.46000832  0.60664145    -0.04300
C160        C  0.05878395  0.59873740  0.54128891    -0.03900
N161        N  0.95553970  0.51794948  0.42766206    -0.23400
N162        N  0.05724985  0.52523181  0.61053767    -0.44200
H163        H  0.92431124  0.60398901  0.56906852     0.09500
C164        C  0.93194728  0.39419845  0.46896572    -0.04300
Cl165      Cl  0.99526829  0.49650324  0.50516754    -0.47300
C166        C  0.07775265  0.37835889  0.50347420     0.45200
H167        H  0.92691825  0.56003748  0.39522182     0.09500
N168        N  0.93256181  0.39135476  0.53218312    -0.44000
N169        N  0.49611538  0.79447270  0.20618446    -0.00800
C170        C  0.49682396  0.80009166  0.24362060     0.01800
C171        C  0.49736735  0.76647494  0.26251100    -0.21100
C172        C  0.49696220  0.73894024  0.23575211    -0.21300
C173        C  0.49620566  0.75687644  0.20160773     0.01700
H174        H  0.49787456  0.76243493  0.29250887     0.15400
H175        H  0.49706026  0.70907006  0.24066412     0.15500
N176        N  0.49431027  0.19660489  0.20574455    -0.00800
C177        C  0.49374613  0.23403034  0.20018360     0.01800
C178        C  0.49301459  0.25292462  0.23380506    -0.21100
C179        C  0.49308894  0.22613016  0.26131031    -0.21300
C180        C  0.49384219  0.19200818  0.24332460     0.01700
H181        H  0.49254071  0.28292082  0.23787179     0.15400
H182        H  0.49269298  0.23099102  0.29118826     0.15500
N183        N  0.49558771  0.19632734  0.80398849    -0.00800
C184        C  0.49567653  0.23395338  0.80847493     0.01800
C185        C  0.49673043  0.25185065  0.77430863    -0.21100
C186        C  0.49723517  0.22429673  0.74759321    -0.21300
C187        C  0.49645292  0.19070596  0.76653973     0.01700
H188        H  0.49709865  0.28171669  0.76936404     0.15400
H189        H  0.49801205  0.22830795  0.71759302     0.15500
N190        N  0.49769884  0.79357465  0.80401482    -0.00800
C191        C  0.49937172  0.79860043  0.76646970     0.01800
C192        C  0.50254527  0.76474349  0.74823555    -0.21100
C193        C  0.50282442  0.73767769  0.77545217    -0.21300
C194        C  0.49979386  0.75610229  0.80920439     0.01700
H195        H  0.50430925  0.76022375  0.71835114     0.15400
H196        H  0.50481622  0.70778210  0.77110014     0.15500
N197        N  0.49244760  0.05261712  0.00519300    -0.34000
N198        N  0.49298354  0.99489180  0.94683629    -0.54500
N199        N  0.48914152  0.93732710  0.00502356    -0.34000
N200        N  0.49350914  0.99505320  0.06333434    -0.54500
C201        C  0.49786951  0.07426182  0.97451888     0.29600
C202        C  0.49827018  0.07425689  0.03580875     0.29600
C203        C  0.49558724  0.91586501  0.97438603     0.29600
C204        C  0.49614343  0.91600600  0.03561492     0.29600
C205        C  0.48875513  0.02543592  0.92485873     0.38200
C206        C  0.48740870  0.96460032  0.92480398     0.38200
C207        C  0.48970872  0.02548093  0.08550292     0.38200
C208        C  0.48842841  0.96473636  0.08537122     0.38200
C209        C  0.50684183  0.11026518  0.98586996    -0.19300
C210        C  0.50709192  0.11026022  0.02437040    -0.19300
C211        C  0.50619817  0.88033135  0.98573144    -0.19300
C212        C  0.50657254  0.88042613  0.02422177    -0.19300
C213        C  0.48092191  0.01441473  0.88849125    -0.20300
C214        C  0.48008234  0.97596202  0.88845746    -0.20300
C215        C  0.48256665  0.01438286  0.12199712    -0.20300
C216        C  0.48176211  0.97595301  0.12191421    -0.20300
C217        C  0.49339870  0.06305492  0.93663251    -0.15700
C218        C  0.49435160  0.06303902  0.07373993    -0.15700
C219        C  0.49202166  0.92713289  0.07350981    -0.15700
C220        C  0.49085380  0.92688029  0.93652320    -0.15700
H221        H  0.51234788  0.13425634  0.96825700     0.17200
H222        H  0.51281800  0.13423886  0.04192854     0.17200
H223        H  0.51299537  0.85668433  0.96810629     0.17200
H224        H  0.51369895  0.85685630  0.04182089     0.17200
H225        H  0.47639464  0.03220937  0.86442522     0.15500
H226        H  0.47486853  0.95839348  0.86436433     0.15500
H227        H  0.47858961  0.03209582  0.14622427     0.15500
H228        H  0.47713242  0.95830513  0.14607642     0.15500
H229        H  0.48359852  0.02518676  0.00520396     0.28800
H230        H  0.47875171  0.96427056  0.00509220     0.28800
N231        N  0.19623116  0.79535548  0.50454200    -0.00800
C232        C  0.19074643  0.75787883  0.50485739     0.01800
C233        C  0.22444829  0.73909478  0.50524875    -0.21100
C234        C  0.25189451  0.76595978  0.50526046    -0.21300
C235        C  0.23381725  0.80004116  0.50484964     0.01700
H236        H  0.22860421  0.70911021  0.50571273     0.15400
H237        H  0.28178892  0.76117015  0.50570278     0.15500
N238        N  0.79381224  0.19805370  0.50487683    -0.00800
C239        C  0.75625130  0.19317130  0.50487762     0.01800
C240        C  0.73799760  0.22716541  0.50412596    -0.21100
C241        C  0.76531740  0.25416923  0.50360033    -0.21300
C242        C  0.79911079  0.23554340  0.50406375     0.01700
H243        H  0.70807662  0.23180942  0.50393228     0.15400
H244        H  0.76101768  0.28413112  0.50292634     0.15500
N245        N  0.19725038  0.19803356  0.50594039    -0.00800
C246        C  0.19222868  0.23559656  0.50592134     0.01800
C247        C  0.22612980  0.25395319  0.50747221    -0.21100
C248        C  0.25321430  0.22675744  0.50852489    -0.21300
C249        C  0.23477014  0.19287914  0.50750147     0.01700
H250        H  0.23065911  0.28388802  0.50776601     0.15400
H251        H  0.28314066  0.23120291  0.50972008     0.15500
N252        N  0.79557270  0.79557401  0.50342748    -0.00800
C253        C  0.75811461  0.80099507  0.50294114     0.01800
C254        C  0.73937992  0.76730089  0.50133910    -0.21100
C255        C  0.76629079  0.73991083  0.50089798    -0.21300
C256        C  0.80033298  0.75803320  0.50222764     0.01700
H257        H  0.70939994  0.76310448  0.50080132     0.15400
H258        H  0.76155231  0.71001999  0.49996912     0.15500
N259        N  0.93778304  0.99752749  0.50925552    -0.34000
N260        N  0.99571226  0.93941113  0.50714197    -0.54500
N261        N  0.05362743  0.99724628  0.50692332    -0.34000
N262        N  0.99561481  0.05535817  0.50510281    -0.54500
C263        C  0.91656050  0.96684672  0.50253584     0.29600
C264        C  0.91652557  0.02805669  0.50194875     0.29600
C265        C  0.07498227  0.96652289  0.50086238     0.29600
C266        C  0.07495501  0.02778220  0.49993616     0.29600
C267        C  0.96529154  0.91745907  0.51235625     0.38200
C268        C  0.02615413  0.91726247  0.51134369     0.38200
C269        C  0.96531452  0.07742772  0.51066260     0.38200
C270        C  0.02618210  0.07732583  0.50941314     0.38200
C271        C  0.88118336  0.97807292  0.49115951    -0.19300
C272        C  0.88115936  0.01660501  0.49080252    -0.19300
C273        C  0.11061223  0.97774730  0.49024546    -0.19300
C274        C  0.11058840  0.01628478  0.48964060    -0.19300
C275        C  0.97649377  0.88103624  0.51960767    -0.20300
C276        C  0.01494354  0.88090486  0.51893323    -0.20300
C277        C  0.97670971  0.11372589  0.51813630    -0.20300
C278        C  0.01516417  0.11366963  0.51732451    -0.20300
C279        C  0.92762821  0.92910097  0.50794817    -0.15700
C280        C  0.92756564  0.06587730  0.50674282    -0.15700
C281        C  0.06379956  0.06566087  0.50435921    -0.15700
C282        C  0.06379809  0.92874978  0.50612741    -0.15700
H283        H  0.85770219  0.96035157  0.48400844     0.17200
H284        H  0.85767073  0.03417588  0.48332508     0.17200
H285        H  0.13431312  0.96003856  0.48383063     0.17200
H286        H  0.13426995  0.03382450  0.48268886     0.17200
H287        H  0.95881606  0.85690121  0.52426317     0.15500
H288        H  0.03259495  0.85665864  0.52302472     0.15500
H289        H  0.95915459  0.13784942  0.52324649     0.15500
H290        H  0.03296371  0.13775044  0.52175869     0.15500
H291        H  0.96458916  0.99763811  0.52021919     0.28800
H292        H  0.02652354  0.99744294  0.51713945     0.28800
C293        C  0.49832362  0.91546155  0.38520939     0.45100
N294        N  0.48095840  0.95516633  0.42647834     0.04000
C295        C  0.59720767  0.06121419  0.54023163    -0.03900
H296        H  0.60513240  0.92746968  0.56944373     0.09500
C297        C  0.46100046  0.92994638  0.60660977    -0.04200
Co298      Co  0.54640868  0.99601374  0.45875452     0.74200
N299        N  0.57313761  0.95575464  0.52682246    -0.23400
Co300      Co  0.54204481  0.99567133  0.55557722     0.74100
C301        C  0.49423521  0.91434511  0.62423461     0.45200
N302        N  0.41741285  0.95461831  0.51999310     0.03600
N303        N  0.51110359  0.95479279  0.58341539     0.03700
N304        N  0.59953542  0.06025773  0.47701737    -0.44300
H305        H  0.56054222  0.92778282  0.39570565     0.09500
N306        N  0.57498511  0.95571701  0.48993016     0.04000
N307        N  0.51055965  0.03573131  0.58381719     0.03700
C308        C  0.49314642  0.07514829  0.62530411     0.45300
N309        N  0.41891737  0.95499558  0.48309721    -0.22900
C310        C  0.53046442  0.06036553  0.40264933    -0.03800
N311        N  0.46813716  0.93199550  0.40058578    -0.44000
N312        N  0.52335146  0.05869174  0.60990005    -0.44200
C313        C  0.49718301  0.07570051  0.38492794     0.45100
N314        N  0.57401189  0.03674198  0.48998915     0.04000
N315        N  0.41854067  0.03570120  0.48335036    -0.22900
N316        N  0.51788689  0.95561364  0.42805879    -0.23400
N317        N  0.41699059  0.03575177  0.52026560     0.03600
H318        H  0.38689074  0.06498818  0.44109454     0.09500
H319        H  0.43093492  0.06303320  0.61454845     0.09500
N320        N  0.57247601  0.03637437  0.52690846    -0.23400
N321        N  0.47418327  0.95480776  0.58181709    -0.23100
N322        N  0.48039319  0.03601829  0.42641236     0.04000
C323        C  0.61644420  0.91608061  0.50722269     0.45400
C324        C  0.39411220  0.93025407  0.46974855    -0.04300
N325        N  0.47365501  0.03530534  0.58218542    -0.23100
H326        H  0.43186979  0.92589983  0.61371511     0.09500
N327        N  0.60121025  0.93289022  0.47708407    -0.44300
H328        H  0.38693355  0.92648614  0.44060399     0.09500
C329        C  0.37638817  0.07648736  0.50349812     0.45200
C330        C  0.53137462  0.93126477  0.40295886    -0.03800
Co331      Co  0.44945453  0.99547392  0.45449496     0.73800
N332        N  0.39184363  0.93116779  0.53295985    -0.44000
C333        C  0.61472574  0.07715019  0.50708798     0.45500
N334        N  0.46722614  0.05890323  0.40044112    -0.44000
Co335      Co  0.44519956  0.99511721  0.55127452     0.73900
C336        C  0.46011944  0.05953527  0.60737010    -0.04300
C337        C  0.59819667  0.93132568  0.54025276    -0.03900
N338        N  0.51731849  0.03598083  0.42791815    -0.23400
N339        N  0.52421058  0.93146748  0.60904401    -0.44200
H340        H  0.60438331  0.06502721  0.56936913     0.09500
C341        C  0.39387571  0.06073894  0.47021892    -0.04300
Cl342      Cl  0.49578485  0.99558266  0.50501953    -0.47300
C343        C  0.37659116  0.91433783  0.50289367     0.45200
H344        H  0.55956944  0.06419143  0.39531905     0.09500
N345        N  0.39155460  0.05927391  0.53342037    -0.44000
C346        C  0.65200379  0.89734378  0.50666583    -0.15900
C347        C  0.68180616  0.88154646  0.50631525     0.08200
C348        C  0.71481400  0.85989015  0.50553361     0.10000
C349        C  0.73872114  0.83617443  0.50443965    -0.16700
C350        C  0.89863246  0.90035083  0.50757879    -0.15900
C351        C  0.87489680  0.87615282  0.50706805     0.08200
C352        C  0.84729991  0.84754768  0.50612327     0.10000
C353        C  0.82360646  0.82333822  0.50501546    -0.16700
C354        C  0.34140837  0.09634117  0.50468764    -0.15900
C355        C  0.31189038  0.11269574  0.50573494     0.08200
C356        C  0.27886168  0.13441309  0.50683646     0.10000
C357        C  0.25461194  0.15785468  0.50742352    -0.16700
C358        C  0.09285503  0.09438624  0.50353358    -0.15900
C359        C  0.11698136  0.11823119  0.50338060     0.08200
C360        C  0.14524715  0.14624017  0.50381195     0.10000
C361        C  0.16928565  0.17015179  0.50463513    -0.16700
C362        C  0.64992179  0.09649542  0.50617046    -0.15900
C363        C  0.67950199  0.11268437  0.50574557     0.08200
C364        C  0.71234955  0.13458487  0.50556249     0.10000
C365        C  0.73635073  0.15823814  0.50538703    -0.16700
C366        C  0.82163027  0.17000206  0.50554728    -0.15900
C367        C  0.84567739  0.14608794  0.50608820     0.08200
C368        C  0.87412131  0.11823934  0.50651942     0.10000
C369        C  0.89842069  0.09455567  0.50666608    -0.16700
C370        C  0.25394611  0.83483747  0.50503764    -0.15900
C371        C  0.27830363  0.85811732  0.50505035     0.08200
C372        C  0.31151048  0.87944698  0.50460801     0.10000
C373        C  0.34128151  0.89525166  0.50388426    -0.16700
C374        C  0.09273082  0.89989667  0.50525816    -0.15900
C375        C  0.11672839  0.87593258  0.50467110     0.08200
C376        C  0.14479574  0.84773250  0.50429374     0.10000
C377        C  0.16859444  0.82357922  0.50430659    -0.16700
C378        C  0.49778013  0.83341633  0.74635217    -0.15900
C379        C  0.49683377  0.85656122  0.72183184     0.08200
C380        C  0.49599083  0.87812675  0.68870499     0.10000
C381        C  0.49526801  0.89451623  0.65920776    -0.16700
C382        C  0.49089276  0.89767338  0.90788099    -0.15900
C383        C  0.49135474  0.87341490  0.88414358     0.08200
C384        C  0.49266064  0.84521080  0.85604229     0.10000
C385        C  0.49462071  0.82139368  0.83194234    -0.16700
C386        C  0.49392856  0.09423275  0.66059092    -0.15900
C387        C  0.49469924  0.11024540  0.69023112     0.08200
C388        C  0.49560753  0.13187591  0.72320931     0.10000
C389        C  0.49618872  0.15546489  0.74724194    -0.16700
C390        C  0.49394765  0.09217754  0.90795057    -0.15900
C391        C  0.49432251  0.11644541  0.88424857     0.08200
C392        C  0.49462899  0.14480039  0.85631420     0.10000
C393        C  0.49493734  0.16872935  0.83227111    -0.16700
C394        C  0.49419225  0.15728476  0.26353751    -0.15900
C395        C  0.49453664  0.13397526  0.28785382     0.08200
C396        C  0.49518308  0.11215625  0.32073027     0.10000
C397        C  0.49599266  0.09557136  0.35006496    -0.16700
C398        C  0.49526681  0.16842148  0.17810756    -0.15900
C399        C  0.49593115  0.14436027  0.15425610     0.08200
C400        C  0.49608648  0.11612042  0.12628852     0.10000
C401        C  0.49554830  0.09201957  0.10247114    -0.16700
C402        C  0.49676658  0.83533643  0.26295660    -0.15900
C403        C  0.49682028  0.85879007  0.28714660     0.08200
C404        C  0.49708146  0.88020025  0.32031134     0.10000
C405        C  0.49752700  0.89618582  0.34999293    -0.16700
C406        C  0.49284718  0.89811232  0.10214248    -0.15900
C407        C  0.49360783  0.87404078  0.12594498     0.08200
C408        C  0.49451850  0.84588958  0.15393101     0.10000
C409        C  0.49526417  0.82203969  0.17796151    -0.16700
C410        C  0.89661160  0.34105747  0.50233400    -0.15900
C411        C  0.88020682  0.31159584  0.50268659     0.08200
C412        C  0.85809570  0.27888884  0.50318878     0.10000
C413        C  0.83426812  0.25506095  0.50365022    -0.16700
C414        C  0.89428769  0.65001040  0.50573075    -0.15900
C415        C  0.87896389  0.67998234  0.50482528     0.08200
C416        C  0.85816029  0.71344262  0.50375053     0.10000
C417        C  0.83510664  0.73795783  0.50293273    -0.16700
C418        C  0.09707183  0.34314062  0.50422986    -0.15900
C419        C  0.11293443  0.31337212  0.50431441     0.08200
C420        C  0.13413676  0.28003690  0.50425250     0.10000
C421        C  0.15731237  0.25555221  0.50463795    -0.16700
C422        C  0.09405021  0.65185339  0.50777274    -0.15900
C423        C  0.11015556  0.68148313  0.50714333     0.08200
C424        C  0.13188467  0.71444929  0.50618485     0.10000
C425        C  0.15553133  0.73845677  0.50537195    -0.16700
C426        C  0.89432520  0.49340266  0.65944436    -0.14700
C427        C  0.87750510  0.49402399  0.68865101     0.08200
C428        C  0.85487123  0.49487598  0.72096557     0.10000
C429        C  0.83090939  0.49551432  0.74464002    -0.16700
C430        C  0.81898781  0.49648084  0.82995134    -0.15900
C431        C  0.84289054  0.49622344  0.85410059     0.08200
C432        C  0.87086283  0.49523160  0.88255718     0.10000
C433        C  0.89470926  0.49408855  0.90676503    -0.16700
C434        C  0.15474031  0.49741274  0.74753619    -0.15900
C435        C  0.13083405  0.49670099  0.72384741     0.08200
C436        C  0.10877403  0.49644194  0.69117345     0.10000
C437        C  0.09281403  0.49622665  0.66150694    -0.16700
C438        C  0.16697650  0.49462481  0.83236489    -0.15900
C439        C  0.14269445  0.49258005  0.85595277     0.08200
C440        C  0.11405214  0.49069160  0.88351476     0.10000
C441        C  0.08974092  0.48974533  0.90715556    -0.16700
C442        C  0.83271870  0.49520318  0.26441809    -0.15900
C443        C  0.85660793  0.49535502  0.28817820     0.08200
C444        C  0.87919620  0.49567572  0.32054762     0.10000
C445        C  0.89616549  0.49631814  0.34967153    -0.16700
C446        C  0.82017804  0.49481236  0.17910980    -0.15900
C447        C  0.84388985  0.49523731  0.15479298     0.08200
C448        C  0.87166002  0.49586384  0.12617374     0.10000
C449        C  0.89534512  0.49624726  0.10181357    -0.16700
C450        C  0.15461239  0.49912273  0.26274691    -0.15900
C451        C  0.13123889  0.49927381  0.28696613     0.08200
C452        C  0.11008775  0.49948594  0.32021890     0.10000
C453        C  0.09473559  0.49974751  0.35019275    -0.16700
C454        C  0.16616994  0.49481565  0.17766754    -0.15900
C455        C  0.14207159  0.49436248  0.15378496     0.08200
C456        C  0.11391302  0.49482073  0.12561312     0.10000
C457        C  0.08997446  0.49531935  0.10154424    -0.16700
C458        C  0.49396063  0.25321758  0.16491683    -0.15900
C459        C  0.49404250  0.27687766  0.14098246     0.08200
C460        C  0.49416430  0.30953707  0.11893039     0.10000
C461        C  0.49447199  0.33910618  0.10282057    -0.16700
C462        C  0.49074396  0.64967566  0.10588663    -0.15900
C463        C  0.49207411  0.67921804  0.12207405     0.08200
C464        C  0.49388277  0.71222217  0.14366168     0.10000
C465        C  0.49516831  0.73659271  0.16690202    -0.16700
C466        C  0.49844572  0.73631648  0.84416309    -0.15900
C467        C  0.49719564  0.71226011  0.86771338     0.08200
C468        C  0.49559963  0.67954366  0.88971467     0.10000
C469        C  0.49424604  0.65022969  0.90628668    -0.16700
C470        C  0.73389066  0.49608714  0.84222793    -0.15900
C471        C  0.71046608  0.49644974  0.86642690     0.08200
C472        C  0.67845620  0.49722577  0.88947129     0.10000
C473        C  0.64950995  0.49801034  0.90671669    -0.16700
C474        C  0.49494728  0.25436683  0.84310666    -0.15900
C475        C  0.49496545  0.27897407  0.86613993     0.08200
C476        C  0.49573654  0.31217328  0.88751855     0.10000
C477        C  0.49663920  0.34172580  0.90374443    -0.16700
C478        C  0.33941663  0.49454498  0.90489826    -0.15900
C479        C  0.30954525  0.49524782  0.88932227     0.08200
C480        C  0.27639803  0.49622321  0.86797185     0.10000
C481        C  0.25222670  0.49731767  0.84455465    -0.16700
C482        C  0.33735551  0.49211259  0.10291049    -0.15900
C483        C  0.30776587  0.49243956  0.11907542     0.08200
C484        C  0.27504839  0.49314455  0.14113935     0.10000
C485        C  0.25127305  0.49436890  0.16497529    -0.16700
C486        C  0.64822649  0.49592416  0.10629009    -0.15900
C487        C  0.67790524  0.49499022  0.12224895     0.08200
C488        C  0.71083641  0.49414260  0.14397486     0.10000
C489        C  0.73491769  0.49388107  0.16752570    -0.16700
loop_ 
_geom_bond_atom_site_label_1 
_geom_bond_atom_site_label_2 
_geom_bond_distance 
_geom_bond_site_symmetry_2 
_ccdc_geom_bond_type 
C1           N19   1.347       .  A
C1           C38   1.454       .  S
C1          C461   1.433       .  S
N2           N19   1.324       .  A
N2           N24   1.321       .  A
N2          Co39   2.082       .  S
C3           N28   1.341       .  A
C3           C41   1.455       .  S
C3           H48   1.082       .  S
H4           C45   1.082       .  S
C5           N29   1.341       .  A
C5            C9   1.456       .  S
C5           H34   1.082       .  S
Co6          N24   2.079       .  S
Co6          N14   2.086       .  S
Co6          N46   2.085   1_554  S
Co6          N22   2.083   1_554  S
Co6         Cl50   2.448       .  S
N7           C45   1.341       .  A
N7           N14   1.321       .  A
N7           Co8   2.080       .  S
Co8          N11   2.081       .  S
Co8          N28   2.081   1_554  S
Co8          N15   2.081   1_554  S
Co8         Cl50   2.450       .  S
C9           N47   1.347       .  A
C9          C462   1.435       .  S
N10          N17   1.321       .  A
N10          N40   1.325       .  A
N10         Co43   2.086       .  S
N11          N29   1.321       .  A
N11          N47   1.324       .  A
N12          C41   1.347       .  A
N12          N22   1.324       .  A
H13          C38   1.082       .  S
N14          N35   1.324       .  A
N15          N33   1.321       .  A
N15          N20   1.324       .  A
C16          N20   1.347       .  A
C16          C44   1.456       .  S
C16         C469   1.435       .  S
N17          C32   1.340       .  A
N17         Co39   2.082       .  S
C18          N46   1.341       .  A
C18          C21   1.457       .  S
C18          H52   1.082       .  S
C21          N42   1.347       .  A
C21         C477   1.436       .  S
N22          N28   1.321       .  A
N23          C49   1.340       .  A
N23          N25   1.320       .  A
N23         Co39   2.081   1_556  S
N24          C38   1.339       .  A
N25          N53   1.324       .  A
N25         Co43   2.082   1_556  S
H26          C49   1.082       .  S
H27          C44   1.082       .  S
N29         Co43   2.080       .  S
N30          N42   1.324       .  A
N30          N46   1.321       .  A
N30         Co39   2.081   1_556  S
C31          N35   1.348       .  A
C31          C45   1.456       .  S
C31         C486   1.436       .  S
C32          C51   1.455       .  S
C32          H36   1.082       .  S
N33          C44   1.340       .  A
N33         Co43   2.082   1_556  S
C37          N53   1.348       .  A
C37          C49   1.455       .  S
C37         C478   1.435       .  S
Co39        Cl50   2.450       .  S
N40          C51   1.348       .  A
C41         C473   1.435       .  S
Co43        Cl50   2.450       .  S
C51         C482   1.436       .  S
N54          C58   1.353       .  A
N54          C55   1.354       .  A
N54         C454   1.413       .  S
C55         C485   1.437       .  S
C55          C56   1.380       .  A
C56          H59   1.083       .  S
C56          C57   1.373       .  A
C57          H60   1.083       .  S
C57          C58   1.380       .  A
C58         C450   1.435       .  S
N61          C65   1.355       .  A
N61          C62   1.354       .  A
N61         C446   1.414       .  S
C62         C489   1.437       .  S
C62          C63   1.380       .  A
C63          H66   1.083       .  S
C63          C64   1.373       .  A
C64          H67   1.083       .  S
C64          C65   1.380       .  A
C65         C442   1.437       .  S
N68          C72   1.354       .  A
N68          C69   1.353       .  A
N68         C438   1.412       .  S
C69         C434   1.436       .  S
C69          C70   1.380       .  A
C70          H73   1.083       .  S
C70          C71   1.373       .  A
C71          H74   1.083       .  S
C71          C72   1.380       .  A
C72         C481   1.436       .  S
N75          C79   1.354       .  A
N75          C76   1.355       .  A
N75         C430   1.415       .  S
C76         C429   1.437       .  S
C76          C77   1.380       .  A
C77          H80   1.083       .  S
C77          C78   1.373       .  A
C78          H81   1.083       .  S
C78          C79   1.380       .  A
C79         C470   1.436       .  S
N82          C87   1.356   1_655  A
N82          C86   1.357       .  A
N82         H114   1.033       .  S
N83          C90   1.357   1_554  A
N83          C91   1.357       .  A
N84          C89   1.356   1_655  A
N84          C88   1.355       .  A
N84         H115   1.033       .  S
N85          C92   1.355   1_554  A
N85          C93   1.356       .  A
C86          C94   1.388       .  A
C86         C102   1.422       .  A
C87         C103   1.422       .  A
C87          C95   1.388       .  A
C88          C96   1.388       .  A
C88         C105   1.422       .  A
C89         C104   1.421       .  A
C89          C97   1.388       .  A
C90         C102   1.422       .  A
C90          C98   1.386       .  A
C91         C105   1.423       .  A
C91          C99   1.387       .  A
C92         C100   1.387       .  A
C92         C103   1.420       .  A
C93         C101   1.386       .  A
C93         C104   1.421       .  A
C94         H106   1.082       .  S
C94          C95   1.377   1_655  A
C95         H107   1.082       .  S
C96         H108   1.082       .  S
C96          C97   1.378   1_655  A
C97         H109   1.082       .  S
C98         H110   1.082       .  S
C98          C99   1.374   1_556  A
C99         H111   1.082       .  S
C100        H112   1.082       .  S
C100        C101   1.373   1_556  A
C101        H113   1.082       .  S
C102        C433   1.467       .  S
C103        C441   1.462       .  S
C104        C457   1.464       .  S
C105        C449   1.465       .  S
C116        N134   1.347       .  A
C116        C153   1.455       .  S
C116        C453   1.433       .  S
N117        N134   1.324       .  A
N117        N139   1.321       .  A
N117       Co154   2.082   1_455  S
C118        N143   1.340       .  A
C118        C156   1.455       .  S
C118        H163   1.082       .  S
H119        C160   1.082       .  S
C120        N144   1.340       .  A
C120        C124   1.455       .  S
C120        H149   1.082       .  S
Co121       N139   2.078   1_655  S
Co121       N129   2.085   1_655  S
Co121       N161   2.084       .  S
Co121       N137   2.081       .  S
Co121      Cl165   2.449       .  S
N122        C160   1.340       .  A
N122        N129   1.321       .  A
N122       Co123   2.082   1_455  S
Co123       N126   2.081   1_655  S
Co123       N143   2.080       .  S
Co123       N130   2.084       .  S
Co123      Cl165   2.450       .  S
C124        N162   1.348       .  A
C124        C437   1.435       .  S
N125        N132   1.321       .  A
N125        N155   1.325       .  A
N125       Co158   2.083   1_455  S
N126        N144   1.321       .  A
N126        N162   1.324       .  A
N127        C156   1.347       .  A
N127        N137   1.323       .  A
H128        C153   1.082       .  S
N129        N150   1.325       .  A
N130        N148   1.321       .  A
N130        N135   1.324       .  A
C131        N135   1.348       .  A
C131        C159   1.455       .  S
C131        C426   1.435       .  S
N132        C147   1.340       .  A
N132       Co154   2.081   1_455  S
C133        N161   1.341       .  A
C133        C136   1.456       .  S
C133        H167   1.082       .  S
C136        N157   1.347       .  A
C136        C445   1.436       .  S
N137        N143   1.321       .  A
N138        C164   1.340       .  A
N138        N140   1.321       .  A
N138       Co154   2.081       .  S
N139        C153   1.340       .  A
N140        N168   1.325       .  A
N140       Co158   2.086       .  S
H141        C164   1.082       .  S
H142        C159   1.082       .  S
N144       Co158   2.083   1_455  S
N145        N157   1.324       .  A
N145        N161   1.321       .  A
N145       Co154   2.082       .  S
C146        N150   1.348       .  A
C146        C160   1.456       .  S
C146        C422   1.436       .  S
C147        C166   1.456       .  S
C147        H151   1.082       .  S
N148        C159   1.340       .  A
N148       Co158   2.081       .  S
C152        N168   1.348       .  A
C152        C164   1.455       .  S
C152        C410   1.436       .  S
Co154      Cl165   2.449       .  S
N155        C166   1.348       .  A
C156        C414   1.433       .  S
Co158      Cl165   2.450       .  S
C166        C418   1.437       .  S
N169        C173   1.354       .  A
N169        C170   1.354       .  A
N169        C409   1.411       .  S
C170        C402   1.437       .  S
C170        C171   1.379       .  A
C171        H174   1.082       .  S
C171        C172   1.373       .  A
C172        H175   1.082       .  S
C172        C173   1.379       .  A
C173        C465   1.438       .  S
N176        C180   1.354       .  A
N176        C177   1.353       .  A
N176        C398   1.412       .  S
C177        C458   1.436       .  S
C177        C178   1.379       .  A
C178        H181   1.082       .  S
C178        C179   1.373       .  A
C179        H182   1.082       .  S
C179        C180   1.379       .  A
C180        C394   1.437       .  S
N183        C187   1.354       .  A
N183        C184   1.355       .  A
N183        C393   1.413       .  S
C184        C474   1.438       .  S
C184        C185   1.380       .  A
C185        H188   1.082       .  S
C185        C186   1.372       .  A
C186        H189   1.083       .  S
C186        C187   1.379       .  A
C187        C389   1.437       .  S
N190        C194   1.355       .  A
N190        C191   1.356       .  A
N190        C385   1.414       .  S
C191        C378   1.439       .  S
C191        C192   1.380       .  A
C192        H195   1.083       .  S
C192        C193   1.372       .  A
C193        H196   1.083       .  S
C193        C194   1.379       .  A
C194        C466   1.437       .  S
N197        C202   1.357       .  A
N197        C201   1.356   1_554  A
N197        H229   1.030       .  S
N198        C205   1.354   1_565  A
N198        C206   1.354       .  A
N199        C204   1.357       .  A
N199        C203   1.357   1_554  A
N199        H230   1.033       .  S
N200        C207   1.353   1_565  A
N200        C208   1.352       .  A
C201        C209   1.387       .  A
C201        C217   1.422       .  A
C202        C218   1.421       .  A
C202        C210   1.387       .  A
C203        C211   1.387       .  A
C203        C220   1.420       .  A
C204        C219   1.420       .  A
C204        C212   1.387       .  A
C205        C217   1.419       .  A
C205        C213   1.387       .  A
C206        C220   1.418       .  A
C206        C214   1.387       .  A
C207        C215   1.387       .  A
C207        C218   1.417       .  A
C208        C216   1.387       .  A
C208        C219   1.416       .  A
C209        H221   1.082       .  S
C209        C210   1.377   1_556  A
C210        H222   1.082       .  S
C211        H223   1.082       .  S
C211        C212   1.376   1_556  A
C212        H224   1.082       .  S
C213        H225   1.082       .  S
C213        C214   1.375   1_545  A
C214        H226   1.082       .  S
C215        H227   1.082       .  S
C215        C216   1.374   1_545  A
C216        H228   1.082       .  S
C217        C390   1.462       .  S
C218        C401   1.460       .  S
C219        C406   1.458       .  S
C220        C382   1.463       .  S
N231        C235   1.354       .  A
N231        C232   1.354       .  A
N231        C377   1.412       .  S
C232        C425   1.438       .  S
C232        C233   1.380       .  A
C233        H236   1.083       .  S
C233        C234   1.373       .  A
C234        H237   1.083       .  S
C234        C235   1.380       .  A
C235        C370   1.437       .  S
N238        C242   1.354       .  A
N238        C239   1.354       .  A
N238        C366   1.413       .  S
C239        C365   1.437       .  S
C239        C240   1.380       .  A
C240        H243   1.083       .  S
C240        C241   1.373       .  A
C241        H244   1.083       .  S
C241        C242   1.380       .  A
C242        C413   1.438       .  S
N245        C249   1.355       .  A
N245        C246   1.355       .  A
N245        C361   1.413       .  S
C246        C421   1.439       .  S
C246        C247   1.379       .  A
C247        H250   1.083       .  S
C247        C248   1.373       .  A
C248        H251   1.082       .  S
C248        C249   1.380       .  A
C249        C357   1.439       .  S
N252        C256   1.354       .  A
N252        C253   1.353       .  A
N252        C353   1.412       .  S
C253        C349   1.437       .  S
C253        C254   1.380       .  A
C254        H257   1.082       .  S
C254        C255   1.373       .  A
C255        H258   1.083       .  S
C255        C256   1.380       .  A
C256        C417   1.436       .  S
N259        C264   1.356   1_565  A
N259        C263   1.355       .  A
N259        H291   1.036       .  S
N260        C267   1.354       .  A
N260        C268   1.354   1_655  A
N261        C266   1.355   1_565  A
N261        C265   1.355       .  A
N261        H292   1.035       .  S
N262        C269   1.355       .  A
N262        C270   1.355   1_655  A
C263        C271   1.388       .  A
C263        C279   1.420       .  A
C264        C280   1.419       .  A
C264        C272   1.388       .  A
C265        C273   1.388       .  A
C265        C282   1.421       .  A
C266        C281   1.421       .  A
C266        C274   1.388       .  A
C267        C279   1.418       .  A
C267        C275   1.387       .  A
C268        C282   1.419       .  A
C268        C276   1.387       .  A
C269        C277   1.386       .  A
C269        C280   1.418       .  A
C270        C278   1.387       .  A
C270        C281   1.420       .  A
C271        H283   1.082       .  S
C271        C272   1.378   1_565  A
C272        H284   1.082       .  S
C273        H285   1.082       .  S
C273        C274   1.378   1_565  A
C274        H286   1.082       .  S
C275        H287   1.082       .  S
C275        C276   1.375   1_655  A
C276        H288   1.082       .  S
C277        H289   1.082       .  S
C277        C278   1.375   1_655  A
C278        H290   1.082       .  S
C279        C350   1.460       .  S
C280        C369   1.462       .  S
C281        C358   1.461       .  S
C282        C374   1.461       .  S
C293        N311   1.348       .  A
C293        C330   1.456       .  S
C293        C405   1.436       .  S
N294        N311   1.324       .  A
N294        N316   1.322       .  A
N294       Co331   2.085       .  S
C295        N320   1.341       .  A
C295        C333   1.456       .  S
C295        H340   1.082       .  S
H296        C337   1.082       .  S
C297        N321   1.341       .  A
C297        C301   1.456       .  S
C297        H326   1.082       .  S
Co298       N316   2.081       .  S
Co298       N306   2.089       .  S
Co298       N338   2.083   1_565  S
Co298       N314   2.084   1_565  S
Co298      Cl342   2.452       .  S
N299        C337   1.340       .  A
N299        N306   1.321       .  A
N299       Co300   2.081       .  S
Co300       N303   2.086       .  S
Co300       N320   2.086   1_565  S
Co300       N307   2.083   1_565  S
Co300      Cl342   2.450       .  S
C301        N339   1.348       .  A
C301        C381   1.438       .  S
N302        N309   1.320       .  A
N302        N332   1.324       .  A
N302       Co335   2.082       .  S
N303        N321   1.321       .  A
N303        N339   1.325       .  A
N304        C333   1.348       .  A
N304        N314   1.324       .  A
H305        C330   1.082       .  S
N306        N327   1.325       .  A
N307        N325   1.321       .  A
N307        N312   1.324       .  A
C308        N312   1.347       .  A
C308        C336   1.455       .  S
C308        C386   1.435       .  S
N309        C324   1.340       .  A
N309       Co331   2.081       .  S
C310        N338   1.340       .  A
C310        C313   1.456       .  S
C310        H344   1.082       .  S
C313        N334   1.347       .  A
C313        C397   1.435       .  S
N314        N320   1.321       .  A
N315        C341   1.342       .  A
N315        N317   1.321       .  A
N315       Co331   2.087   1_545  S
N316        C330   1.340       .  A
N317        N345   1.325       .  A
N317       Co335   2.088   1_545  S
H318        C341   1.082       .  S
H319        C336   1.082       .  S
N321       Co335   2.084       .  S
N322        N334   1.324       .  A
N322        N338   1.321       .  A
N322       Co331   2.081   1_545  S
C323        N327   1.349       .  A
C323        C337   1.455       .  S
C323        C346   1.437       .  S
C324        C343   1.456       .  S
C324        H328   1.082       .  S
N325        C336   1.340       .  A
N325       Co335   2.079   1_545  S
C329        N345   1.348       .  A
C329        C341   1.457       .  S
C329        C354   1.439       .  S
Co331      Cl342   2.451       .  S
N332        C343   1.347       .  A
C333        C362   1.436       .  S
Co335      Cl342   2.450       .  S
C343        C373   1.435       .  S
C346        C347   1.206       .  T
C347        C348   1.412       .  S
C348        C349   1.205       .  T
C350        C351   1.212       .  T
C351        C352   1.421       .  S
C352        C353   1.212       .  T
C354        C355   1.207       .  T
C355        C356   1.414       .  S
C356        C357   1.206       .  T
C358        C359   1.213       .  T
C359        C360   1.423       .  S
C360        C361   1.213       .  T
C362        C363   1.206       .  T
C363        C364   1.411       .  S
C364        C365   1.205       .  T
C366        C367   1.213       .  T
C367        C368   1.423       .  S
C368        C369   1.213       .  T
C370        C371   1.205       .  T
C371        C372   1.411       .  S
C372        C373   1.205       .  T
C374        C375   1.213       .  T
C375        C376   1.423       .  S
C376        C377   1.212       .  T
C378        C379   1.206       .  T
C379        C380   1.414       .  S
C380        C381   1.207       .  T
C382        C383   1.214       .  T
C383        C384   1.424       .  S
C384        C385   1.214       .  T
C386        C387   1.205       .  T
C387        C388   1.411       .  S
C388        C389   1.204       .  T
C390        C391   1.213       .  T
C391        C392   1.423       .  S
C392        C393   1.213       .  T
C394        C395   1.204       .  T
C395        C396   1.411       .  S
C396        C397   1.205       .  T
C398        C399   1.212       .  T
C399        C400   1.421       .  S
C400        C401   1.212       .  T
C402        C403   1.205       .  T
C403        C404   1.412       .  S
C404        C405   1.206       .  T
C406        C407   1.211       .  T
C407        C408   1.420       .  S
C408        C409   1.211       .  T
C410        C411   1.206       .  T
C411        C412   1.412       .  S
C412        C413   1.205       .  T
C414        C415   1.204       .  T
C415        C416   1.409       .  S
C416        C417   1.204       .  T
C418        C419   1.206       .  T
C419        C420   1.413       .  S
C420        C421   1.206       .  T
C422        C423   1.206       .  T
C423        C424   1.412       .  S
C424        C425   1.205       .  T
C426        C427   1.205       .  T
C427        C428   1.411       .  S
C428        C429   1.204       .  T
C430        C431   1.215       .  T
C431        C432   1.427       .  S
C432        C433   1.216       .  T
C434        C435   1.204       .  T
C435        C436   1.410       .  S
C436        C437   1.205       .  T
C438        C439   1.212       .  T
C439        C440   1.423       .  S
C440        C441   1.213       .  T
C442        C443   1.205       .  T
C443        C444   1.412       .  S
C444        C445   1.206       .  T
C446        C447   1.214       .  T
C447        C448   1.426       .  S
C448        C449   1.215       .  T
C450        C451   1.203       .  T
C451        C452   1.409       .  S
C452        C453   1.204       .  T
C454        C455   1.213       .  T
C455        C456   1.424       .  S
C456        C457   1.214       .  T
C458        C459   1.203       .  T
C459        C460   1.409       .  S
C460        C461   1.204       .  T
C462        C463   1.205       .  T
C463        C464   1.412       .  S
C464        C465   1.205       .  T
C466        C467   1.204       .  T
C467        C468   1.411       .  S
C468        C469   1.205       .  T
C470        C471   1.204       .  T
C471        C472   1.410       .  S
C472        C473   1.205       .  T
C474        C475   1.205       .  T
C475        C476   1.412       .  S
C476        C477   1.206       .  T
C478        C479   1.205       .  T
C479        C480   1.410       .  S
C480        C481   1.204       .  T
C482        C483   1.205       .  T
C483        C484   1.411       .  S
C484        C485   1.204       .  T
C486        C487   1.205       .  T
C487        C488   1.411       .  S
C488        C489   1.204       .  T
