geometry optimzed in LAMMPS
_audit_creation_date              2020-11-30 
_audit_creation_method            'lammps2cif' 
_symmetry_space_group_name_H-M    'P1' 
_symmetry_Int_Tables_number       1 
_symmetry_cell_setting            triclinic 
loop_ 
_symmetry_equiv_pos_as_xyz 
  x,y,z 
_cell_length_a                    50.889891691957295 
_cell_length_b                    49.69756106105902 
_cell_length_c                    40.58068412590464 
_cell_angle_alpha                 90.1389145572249 
_cell_angle_beta                  90.40785762523667 
_cell_angle_gamma                 120.14222619835544 
loop_ 
_atom_site_label 
_atom_site_type_symbol 
_atom_site_fract_x 
_atom_site_fract_y 
_atom_site_fract_z 
_atom_site_charge 
O1          O  0.42949888  0.40095230  0.33544143    -0.80590
O2          O  0.45657596  0.35002113  0.44038687    -0.80610
O3          O  0.36480691  0.33334388  0.40777684    -0.80620
O4          O  0.49341154  0.38783150  0.38195681    -0.80560
O5          O  0.40369011  0.34780493  0.44117733    -0.80680
O6          O  0.48317701  0.40297324  0.33668354    -0.80600
O7          O  0.48443151  0.33764939  0.41075569    -0.80590
O8          O  0.39793896  0.38202628  0.37494851    -0.80630
C9          C  0.41232244  0.40383794  0.35534805     1.09100
C10         C  0.47929942  0.34650493  0.43816695     1.08990
C11         C  0.37860648  0.34584112  0.43487332     1.09120
C12         C  0.50079282  0.40859992  0.36093892     1.09000
O13         O  0.45524010  0.33890411  0.31183699    -0.80590
O14         O  0.37386423  0.28599160  0.41147233    -0.80670
O15         O  0.35835698  0.33570679  0.33529428    -0.80600
O16         O  0.44217440  0.29863931  0.35970009    -0.80580
O17         O  0.43024329  0.28915220  0.41137632    -0.80630
O18         O  0.39768443  0.33533829  0.31384693    -0.80600
O19         O  0.49604600  0.34642706  0.33944536    -0.80560
O20         O  0.37334018  0.29356365  0.35887961    -0.80630
Co21       Co  0.44018099  0.36725618  0.33014926     1.51530
Co22       Co  0.41693802  0.32015066  0.42282187     1.51690
Co23       Co  0.38883693  0.33889190  0.36591296     1.51570
Co24       Co  0.46579887  0.34411482  0.36904540     1.51470
O25         O  0.42988278  0.34775441  0.38095823    -1.42520
C26         C  0.48202278  0.34218458  0.31198243     1.09030
C27         C  0.36164692  0.27616813  0.38336740     1.09120
C28         C  0.37416503  0.33827064  0.30985199     1.09060
C29         C  0.43736984  0.28153208  0.38443538     1.09030
O30         O  0.45769214  0.11612544  0.31778480    -0.80590
O31         O  0.43735116  0.04671277  0.36919272    -0.80610
O32         O  0.99008501  0.10839042  0.38436897    -0.80620
O33         O  0.36164803  0.04215473  0.34087587    -0.80560
O34         O  0.47485533  0.07256112  0.42231512    -0.80680
O35         O  0.40369440  0.06614884  0.31291538    -0.80600
O36         O  0.38889857  0.02046508  0.38173258    -0.80590
O37         O  0.48292987  0.15468698  0.35098128    -0.80630
C38         C  0.47871932  0.14357649  0.32180125     1.09100
C39         C  0.41237963  0.02114817  0.36963394     1.08990
C40         C  0.99571349  0.09138588  0.40431152     1.09120
C41         C  0.37669061  0.04472954  0.31530597     1.09000
O42         O  0.37497679  0.09990992  0.33871965    -0.80590
O43         O  0.45659594  0.11180466  0.44163118    -0.80670
O44         O  0.43956301  0.15008769  0.39939148    -0.80600
O45         O  0.38518090  0.05988975  0.43527330    -0.80580
O46         O  0.41897564  0.04618548  0.43396762    -0.80630
O47         O  0.43078629  0.15145735  0.34644560    -0.80600
O48         O  0.36381660  0.08394581  0.38986152    -0.80560
O49         O  0.49294666  0.15540947  0.41982624    -0.80630
Co50       Co  0.41721206  0.10725416  0.33128546     1.51530
Co51       Co  0.44581923  0.07930603  0.40271578     1.51690
Co52       Co  0.46138694  0.12719875  0.39146622     1.51570
Co53       Co  0.37805451  0.05451773  0.38688082     1.51470
O54         O  0.42075023  0.09102128  0.37557514    -1.42520
C55         C  0.35913885  0.09541508  0.36454410     1.09030
C56         C  0.48035944  0.13944870  0.44537975     1.09120
C57         C  0.43470563  0.16312631  0.37530231     1.09060
C58         C  0.39668680  0.04518152  0.44799816     1.09030
O59         O  0.02571463  0.40299223  0.11913567    -0.80590
O60         O  0.15667090  0.48367979  0.09166563    -0.80610
O61         O  0.07569068  0.47074642  0.11606721    -0.80620
O62         O  0.06526238  0.40525387  0.05939597    -0.80560
O63         O  0.12274596  0.49634392  0.13508976    -0.80680
O64         O  0.04002594  0.36418853  0.08929132    -0.80600
O65         O  0.11760702  0.45737004  0.05870808    -0.80590
O66         O  0.02958308  0.43432044  0.15921958    -0.80630
C67         C  0.01353024  0.41561239  0.13635995     1.09100
C68         C  0.14347763  0.48055398  0.06421644     1.08990
C69         C  0.09888404  0.49632187  0.12426964     1.09120
C70         C  0.04359072  0.37807010  0.06210165     1.09000
O71         O  0.08146154  0.36937335  0.14085554    -0.80590
O72         O  0.12557617  0.45197728  0.18088196    -0.80670
O73         O  0.05727091  0.40251259  0.18131602    -0.80600
O74         O  0.14934286  0.42624263  0.08291680    -0.80580
O75         O  0.15730936  0.43863982  0.13536782    -0.80630
O76         O  0.02515281  0.35812103  0.15795892    -0.80600
O77         O  0.09401568  0.37175368  0.08837034    -0.80560
O78         O  0.09081461  0.46477568  0.18220325    -0.80630
Co79       Co  0.05724004  0.38924403  0.13163586     1.51530
Co80       Co  0.13777309  0.46493631  0.13531917     1.51690
Co81       Co  0.06649911  0.43533989  0.14498035     1.51570
Co82       Co  0.10562883  0.41589045  0.07492424     1.51470
O83         O  0.09691159  0.42851619  0.11923344    -1.42520
C84         C  0.08843928  0.35840953  0.11647702     1.09030
C85         C  0.11371742  0.46532263  0.19569798     1.09120
C86         C  0.03639921  0.37384282  0.18423154     1.09060
C87         C  0.16489494  0.43038236  0.10913676     1.09030
O88         O  0.18652914  0.15858281  0.35203048    -0.80590
O89         O  0.14340761  0.02116060  0.38432735    -0.80610
O90         O  0.16925424  0.06923054  0.30737401    -0.80620
O91         O  0.11343281  0.07664736  0.42401799    -0.80560
O92         O  0.18295081  0.03997572  0.33396046    -0.80680
O93         O  0.13431955  0.11264447  0.38589873    -0.80600
O94         O  0.12094484  0.04740480  0.37208755    -0.80590
O95         O  0.16935165  0.11955566  0.31913071    -0.80630
C96         C  0.17807309  0.14753092  0.32316324     1.09100
C97         C  0.11998580  0.02147378  0.37401202     1.08990
C98         C  0.16753795  0.04351678  0.31119778     1.09120
C99         C  0.11157794  0.09569891  0.40507244     1.09000
O100        O  0.18005514  0.15869005  0.42162145    -0.80590
O101        O  0.23078354  0.08309781  0.37954559    -0.80670
O102        O  0.23326806  0.15090229  0.34263571    -0.80600
O103        O  0.14630682  0.05053312  0.43579488    -0.80580
O104        O  0.19330980  0.06341603  0.42953302    -0.80630
O105        O  0.22619699  0.15164584  0.39632307    -0.80600
O106        O  0.17213149  0.11332740  0.43992544    -0.80560
O107        O  0.23255811  0.09655346  0.32800117    -0.80630
Co108      Co  0.18142818  0.12998765  0.39113659     1.51530
Co109      Co  0.18774718  0.05464381  0.38161406     1.51690
Co110      Co  0.19978895  0.10802440  0.32693348     1.51570
Co111      Co  0.14774466  0.08119352  0.40278410     1.51470
O112        O  0.18246274  0.09216631  0.37260093    -1.42520
C113        C  0.17500745  0.14029567  0.44555346     1.09030
C114        C  0.24531516  0.09324647  0.35337653     1.09120
C115        C  0.24257750  0.16332346  0.37108286     1.09060
C116        C  0.16985524  0.05122502  0.44676673     1.09030
O117        O  0.03962871  0.12363449  0.17394523    -0.80590
O118        O  0.11615569  0.16635208  0.07228461    -0.80610
O119        O  0.03001622  0.18247331  0.09987763    -0.80620
O120        O  0.10033039  0.12933999  0.12017029    -0.80560
O121        O  0.06215826  0.17213829  0.07430786    -0.80680
O122        O  0.09247958  0.12059019  0.17232874    -0.80600
O123        O  0.15662394  0.17127867  0.09933086    -0.80590
O124        O  0.03599565  0.13347978  0.12212972    -0.80630
C125        C  0.02549496  0.11563854  0.14659092     1.09100
C126        C  0.14125981  0.16563964  0.07257439     1.08990
C127        C  0.04017842  0.17798189  0.07286685     1.09120
C128        C  0.09591522  0.11182480  0.14411891     1.09000
O129        O  0.12401830  0.18416036  0.20117194    -0.80590
O130        O  0.10164486  0.23601912  0.09767852    -0.80670
O131        O  0.03400100  0.17371968  0.17304963    -0.80600
O132        O  0.15923774  0.21641920  0.14153534    -0.80580
O133        O  0.15007297  0.22912448  0.09458575    -0.80630
O134        O  0.07299526  0.18518154  0.20430780    -0.80600
O135        O  0.14612211  0.16551321  0.17149581    -0.80560
O136        O  0.07546576  0.22320177  0.14224884    -0.80630
Co137      Co  0.08316224  0.15522063  0.18491254     1.51530
Co138      Co  0.10594120  0.19845467  0.09095209     1.51690
Co139      Co  0.05777045  0.17917663  0.13059878     1.51570
Co140      Co  0.12889078  0.17394383  0.12939638     1.51470
O141        O  0.09623844  0.18124196  0.14262729    -1.42520
C142        C  0.14200364  0.17411401  0.19964428     1.09030
C143        C  0.09080877  0.24340341  0.12142709     1.09120
C144        C  0.04674104  0.18118120  0.20149946     1.09060
C145        C  0.16795004  0.23513879  0.11847734     1.09030
O146        O  0.39778547  0.41556136  0.14775775    -0.80590
O147        O  0.35945454  0.44944785  0.06911081    -0.80610
O148        O  0.35076749  0.38544673  0.07713836    -0.80620
O149        O  0.38395094  0.49935876  0.14831385    -0.80560
O150        O  0.31679855  0.39104459  0.04831649    -0.80680
O151        O  0.40922951  0.47413833  0.14404232    -0.80600
O152        O  0.34636912  0.48071075  0.09277838    -0.80590
O153        O  0.37143776  0.39199790  0.10272759    -0.80630
C154        C  0.39552578  0.40215898  0.12072968     1.09100
C155        C  0.35809424  0.47421115  0.06878346     1.08990
C156        C  0.33648634  0.38249891  0.04927705     1.09120
C157        C  0.40923207  0.49933073  0.14604324     1.09000
O158        O  0.37359750  0.46520890  0.20004189    -0.80590
O159        O  0.28856311  0.37364663  0.10888147    -0.80670
O160        O  0.34419827  0.36776035  0.15950056    -0.80600
O161        O  0.29479745  0.43813472  0.13294966    -0.80580
O162        O  0.29552233  0.42672732  0.08161907    -0.80630
O163        O  0.35095346  0.40319951  0.19550470    -0.80600
O164        O  0.32831072  0.45449629  0.18584471    -0.80560
O165        O  0.30802820  0.34308931  0.11145856    -0.80630
Co166      Co  0.38018752  0.43848715  0.16877810     1.51530
Co167      Co  0.32652714  0.41244484  0.09023044     1.51690
Co168      Co  0.33189897  0.38587418  0.12271916     1.51570
Co169      Co  0.33880452  0.46599452  0.13961822     1.51470
O170        O  0.34803675  0.43108781  0.13371377    -1.42520
C171        C  0.34915892  0.46432159  0.20672622     1.09030
C172        C  0.28486404  0.34614630  0.11063548     1.09120
C173        C  0.34563376  0.37623424  0.18908184     1.09060
C174        C  0.28159868  0.43081484  0.10534204     1.09030
C175        C  0.44049177  0.05667990  0.13948214    -0.06230
C176        C  0.43950296  0.02880897  0.14722131    -0.00300
C177        C  0.46743171  0.02996865  0.15607679    -0.08880
C178        C  0.49485146  0.05876173  0.15507243    -0.06250
C179        C  0.49577032  0.08600710  0.14471083    -0.00320
C180        C  0.46806248  0.08485003  0.13654599    -0.08780
C181        C  0.46757031  0.11275159  0.12299649     0.61590
H182        H  0.41939398  0.05625249  0.13521832     0.12290
H183        H  0.01614431  0.06026550  0.16201024     0.12300
C184        C  0.46891893  0.00167101  0.16784900     0.61830
F185        F  0.43842704  0.10687014  0.11625207    -0.23340
F186        F  0.48337129  0.12044245  0.09398368    -0.20670
F187        F  0.48094165  0.13728967  0.14500082    -0.20350
F188        F  0.46230664  0.48099774  0.14204567    -0.20400
F189        F  0.44856265  0.48728259  0.19315975    -0.20720
F190        F  0.99751104  0.00959327  0.17973792    -0.23390
C191        C  0.20331102  0.28554776  0.09413214    -0.06230
C192        C  0.19854498  0.26312726  0.11790078    -0.00300
C193        C  0.22306902  0.26781086  0.13876661    -0.08880
C194        C  0.25109982  0.29527405  0.13505541    -0.06250
C195        C  0.25459946  0.31864555  0.11321150    -0.00320
C196        C  0.22998897  0.31430100  0.09317623    -0.08780
C197        C  0.23095508  0.33995752  0.07204890     0.61590
H198        H  0.18557351  0.28072760  0.07650472     0.12290
H199        H  0.27052961  0.29908604  0.14973740     0.12300
C200        C  0.22045143  0.24402229  0.16399392     0.61830
F201        F  0.20520522  0.32956179  0.05251392    -0.23340
F202        F  0.25563908  0.35230844  0.05152470    -0.20670
F203        F  0.23287667  0.36307806  0.09247512    -0.20350
F204        F  0.21090806  0.21565688  0.14866778    -0.20400
F205        F  0.19999580  0.24080885  0.18806786    -0.20720
F206        F  0.24795245  0.25281306  0.17950188    -0.23390
C207        C  0.15021897  0.16603446  0.29094221    -0.06230
C208        C  0.17678013  0.16480990  0.29388330    -0.00300
C209        C  0.19346349  0.16781771  0.26450071    -0.08880
C210        C  0.18273997  0.17273610  0.23400117    -0.06250
C211        C  0.15363498  0.16906827  0.23137426    -0.00320
C212        C  0.13585827  0.16175414  0.26037134    -0.08780
C213        C  0.10123154  0.14401757  0.26095099     0.61590
H214        H  0.13770015  0.16404562  0.31283719     0.12290
H215        H  0.19598013  0.17738446  0.21178840     0.12300
C216        C  0.22180058  0.16497474  0.26488776     0.61830
F217        F  0.09122966  0.11690436  0.27848724    -0.23340
F218        F  0.08776224  0.13472665  0.23064984    -0.20670
F219        F  0.09076886  0.16170129  0.27580271    -0.20350
F220        F  0.21460141  0.13541432  0.27441757    -0.20400
F221        F  0.24308997  0.18652319  0.28643280    -0.20720
F222        F  0.23495854  0.17018825  0.23408774    -0.23390
C223        C  0.14017912  0.12629376  0.49179900    -0.06230
C224        C  0.16878320  0.14728302  0.47911938    -0.00300
C225        C  0.18949514  0.17307337  0.49848381    -0.08880
C226        C  0.18029106  0.17733632  0.02994099    -0.06250
C227        C  0.15092264  0.15702611  0.04183345    -0.00320
C228        C  0.13056409  0.13081230  0.02252390    -0.08780
C229        C  0.09898811  0.10712966  0.03426907     0.61590
H230        H  0.12479624  0.10653650  0.47682750     0.12290
H231        H  0.19551182  0.19733916  0.04489497     0.12300
C232        C  0.22100654  0.19563296  0.48603298     0.61830
F233        F  0.08507903  0.08127947  0.01377914    -0.23340
F234        F  0.08057733  0.12017688  0.03520103    -0.20670
F235        F  0.10110813  0.09701203  0.06523270    -0.20350
F236        F  0.21883541  0.21102519  0.45877411    -0.20400
F237        F  0.23563540  0.17956943  0.47738723    -0.20720
F238        F  0.23851576  0.21764224  0.00969727    -0.23390
C239        C  0.15391080  0.48651031  0.50577822    -0.06230
C240        C  0.15845829  0.50150830  0.03618161    -0.00300
C241        C  0.17250622  0.03438335  0.03733432    -0.08880
C242        C  0.17720506  0.05055387  0.00736730    -0.06250
C243        C  0.16877449  0.03454648  0.47711069    -0.00320
C244        C  0.15844566  0.50232625  0.47620745    -0.08780
C245        C  0.14902657  0.48379649  0.44451445     0.61590
H246        H  0.14431307  0.46148641  0.50542046     0.12290
H247        H  0.18622916  0.07547379  0.00739972     0.12300
C248        C  0.18140516  0.05196914  0.06968377     0.61830
F249        F  0.14324092  0.45367611  0.44894295    -0.23340
F250        F  0.17178536  0.49773554  0.42142677    -0.20670
F251        F  0.12266375  0.48229964  0.43324240    -0.20350
F252        F  0.20126201  0.04557526  0.08670288    -0.20400
F253        F  0.15579501  0.04294248  0.08818013    -0.20720
F254        F  0.19553127  0.08382416  0.06517611    -0.23390
C255        C  0.16510524  0.00491562  0.27162605    -0.06230
C256        C  0.15035184  0.01937939  0.28572387    -0.00300
C257        C  0.12247445  0.01418152  0.27121775    -0.08880
C258        C  0.11130366  0.49547114  0.24293720    -0.06250
C259        C  0.12686475  0.48245065  0.22753921    -0.00320
C260        C  0.15459870  0.98748814  0.24217924    -0.08780
C261        C  0.17443309  0.97667977  0.22605443     0.61590
H262        H  0.18642416  0.00945234  0.28259595     0.12290
H263        H  0.09013295  0.49169840  0.23217408     0.12300
C264        C  0.10268549  0.02704716  0.28323612     0.61830
F265        F  0.20102105  0.98560966  0.24364713    -0.23340
F266        F  0.18251447  0.98978689  0.19507991    -0.20670
F267        F  0.15879879  0.44456185  0.22383725    -0.20350
F268        F  0.11373423  0.04580307  0.31053595    -0.20400
F269        F  0.07420741  0.00247127  0.29076261    -0.20720
F270        F  0.09953026  0.54425023  0.25836833    -0.23390
C271        C  0.12243879  0.05190818  0.14129013    -0.06230
C272        C  0.09755328  0.02613531  0.12625497    -0.00300
C273        C  0.07210143  0.02941087  0.11696744    -0.08880
C274        C  0.07261890  0.05763004  0.12346729    -0.06250
C275        C  0.09717489  0.08267603  0.13926130    -0.00320
C276        C  0.12294927  0.07999949  0.14764178    -0.08780
C277        C  0.15127270  0.10654976  0.16303539     0.61590
H278        H  0.14176765  0.04982778  0.14877964     0.12290
H279        H  0.05335815  0.06025157  0.11689844     0.12300
C280        C  0.04310905  0.00277276  0.10335984     0.61830
F281        F  0.17368777  0.09906481  0.16887544    -0.23340
F282        F  0.14393238  0.11420430  0.19289602    -0.20670
F283        F  0.16323353  0.13162723  0.14199270    -0.20350
F284        F  0.03007183  0.48148655  0.12828588    -0.20400
F285        F  0.04897983  0.48972436  0.07627986    -0.20720
F286        F  0.02249142  0.01170783  0.09356096    -0.23390
C287        C  0.11669408  0.33011378  0.11642038    -0.06230
C288        C  0.08883644  0.32894941  0.12010660    -0.00300
C289        C  0.06211837  0.29964278  0.12527144    -0.08880
C290        C  0.06456999  0.27286224  0.12718214    -0.06250
C291        C  0.09214878  0.27385443  0.12252854    -0.00320
C292        C  0.11873392  0.30290003  0.11722473    -0.08780
C293        C  0.14873738  0.30499782  0.11092791     0.61590
H294        H  0.13674437  0.35249345  0.11195564     0.12290
H295        H  0.04447540  0.25038473  0.13102575     0.12300
C296        C  0.03080926  0.29582560  0.12789605     0.61830
F297        F  0.17247553  0.33547282  0.11123368    -0.23340
F298        F  0.14714655  0.29229202  0.08021903    -0.20670
F299        F  0.15454073  0.28886664  0.13488666    -0.20350
F300        F  0.02472357  0.30819810  0.10052577    -0.20400
F301        F  0.02955405  0.31039452  0.15617146    -0.20720
F302        F  0.00809709  0.26491783  0.12966420    -0.23390
C303        C  0.23494064  0.42303902  0.13352768    -0.06230
C304        C  0.24999136  0.42704978  0.10334355    -0.00300
C305        C  0.23514829  0.42905776  0.07440688    -0.08880
C306        C  0.20710239  0.42891839  0.07731356    -0.06250
C307        C  0.19326455  0.42721049  0.10806660    -0.00320
C308        C  0.20749729  0.42339040  0.13662242    -0.08780
C309        C  0.19525756  0.42153296  0.17095823     0.61590
H310        H  0.24559681  0.42062035  0.15559595     0.12290
H311        H  0.19625721  0.43124859  0.05534269     0.12300
C312        C  0.24900160  0.43204544  0.04072004     0.61830
F313        F  0.21016785  0.41380155  0.19447200    -0.23340
F314        F  0.16472878  0.39932070  0.17207911    -0.20670
F315        F  0.19960845  0.45037284  0.17922004    -0.20350
F316        F  0.25172149  0.40623350  0.03429150    -0.20400
F317        F  0.27739904  0.45852681  0.03979511    -0.20720
F318        F  0.23129854  0.43412425  0.01591385    -0.23390
C319        C  0.47691137  0.42653252  0.10459330    -0.06230
C320        C  0.48166689  0.40881812  0.12842243    -0.00300
C321        C  0.45556014  0.38286442  0.14177545    -0.08880
C322        C  0.42637845  0.37841821  0.13464574    -0.06250
C323        C  0.42204197  0.39821038  0.11346088    -0.00320
C324        C  0.44765001  0.42167595  0.09690017    -0.08780
C325        C  0.44370830  0.44077985  0.07042438     0.61590
H326        H  0.99612984  0.44370390  0.09114305     0.12290
H327        H  0.40666929  0.36027588  0.14701867     0.12300
C328        C  0.45849285  0.35951947  0.16287015     0.61830
F329        F  0.47114754  0.46234842  0.05679284    -0.23340
F330        F  0.43001302  0.45653484  0.08300571    -0.20670
F331        F  0.42562691  0.42089643  0.04570190    -0.20350
F332        F  0.47794089  0.37465572  0.18905122    -0.20400
F333        F  0.46982872  0.34464410  0.14389862    -0.20720
F334        F  0.43080818  0.33702175  0.17520404    -0.23390
C335        C  0.02572663  0.17190632  0.48013075    -0.06230
C336        C  0.49400201  0.15262512  0.47856874    -0.00300
C337        C  0.47731927  0.14670706  0.00821244    -0.08880
C338        C  0.99311402  0.15970486  0.03814659    -0.06250
C339        C  0.02490845  0.17454213  0.04014841    -0.00320
C340        C  0.04155235  0.18266074  0.01026476    -0.08780
C341        C  0.07595971  0.20301360  0.50966631     0.61590
H342        H  0.03848021  0.17703012  0.45750128     0.12290
H343        H  0.48056803  0.15636706  0.06053919     0.12300
C344        C  0.44344960  0.12465137  0.00909181     0.61830
F345        F  0.08616554  0.21520738  0.47865322    -0.23340
F346        F  0.08939958  0.18578320  0.01827278    -0.20670
F347        F  0.08530081  0.22776563  0.03128829    -0.20350
F348        F  0.43808370  0.09495438  0.00323710    -0.20400
F349        F  0.42892523  0.13242946  0.48539276    -0.20720
F350        F  0.43123732  0.12499433  0.03935796    -0.23390
C351        C  0.02787669  0.18008643  0.29294647    -0.06230
C352        C  0.49604209  0.16156792  0.29183380    -0.00300
C353        C  0.48141837  0.15853182  0.26063583    -0.08880
C354        C  0.49871505  0.16637553  0.23158646    -0.06250
C355        C  0.03037226  0.18097769  0.23243087    -0.00320
C356        C  0.04511672  0.19213297  0.26372737    -0.08780
C357        C  0.07728471  0.21987222  0.26641733     0.61590
H358        H  0.03920493  0.18525437  0.31674205     0.12290
H359        H  0.48730550  0.16143668  0.20784662     0.12300
C360        C  0.44965753  0.15375229  0.25670999     0.61830
F361        F  0.08433874  0.23094884  0.29849413    -0.23340
F362        F  0.07942491  0.24366532  0.24691542    -0.20670
F363        F  0.09887959  0.21271308  0.25644596    -0.20350
F364        F  0.45208408  0.18254695  0.25279952    -0.20400
F365        F  0.43127660  0.13949325  0.28322152    -0.20720
F366        F  0.43560350  0.13616204  0.22881120    -0.23390
C367        C  0.37900428  0.03947934  0.00573065    -0.06230
C368        C  0.38404961  0.02607168  0.47794333    -0.00300
C369        C  0.37765331  0.49486700  0.47947169    -0.08880
C370        C  0.37013175  0.47959051  0.50973425    -0.06250
C371        C  0.36724037  0.49360870  0.03843137    -0.00320
C372        C  0.37097958  0.02401050  0.03623934    -0.08780
C373        C  0.36735320  0.04067820  0.06564526     0.61590
H374        H  0.38193762  0.06251856  0.00342869     0.12290
H375        H  0.36562071  0.45591004  0.51083081     0.12300
C376        C  0.37571072  0.47657989  0.44881367     0.61830
F377        F  0.37574533  0.07119673  0.05867953    -0.23340
F378        F  0.38564192  0.04120316  0.09105249    -0.20670
F379        F  0.33738827  0.02558193  0.07554067    -0.20350
F380        F  0.40413098  0.48831578  0.43517353    -0.20400
F381        F  0.35591545  0.47858199  0.42686348    -0.20720
F382        F  0.36458511  0.44533270  0.45510405    -0.23390
C383        C  0.35837073  0.01311176  0.22897578    -0.06230
C384        C  0.34830768  0.48185524  0.23492427    -0.00300
C385        C  0.34265905  0.47012190  0.26727730    -0.08880
C386        C  0.34966250  0.99118562  0.29352423    -0.06250
C387        C  0.36297637  0.02316933  0.28757291    -0.00320
C388        C  0.36631368  0.03427738  0.25486708    -0.08780
C389        C  0.38168323  0.06858394  0.24689752     0.61590
H390        H  0.36262785  0.02133102  0.20376580     0.12290
H391        H  0.34693915  0.48319279  0.31874968     0.12300
C392        C  0.32974219  0.43580575  0.27363103     0.61830
F393        F  0.37646163  0.07357202  0.21454470    -0.23340
F394        F  0.41260883  0.08127764  0.25142239    -0.20670
F395        F  0.37106995  0.08345505  0.26708337    -0.20350
F396        F  0.34943656  0.42644332  0.26214835    -0.20400
F397        F  0.30211068  0.41927206  0.25739898    -0.20720
F398        F  0.32510272  0.42897701  0.30685616    -0.23390
C399        C  0.04686077  0.11061775  0.38229443    -0.06230
C400        C  0.02534275  0.09268727  0.40581318    -0.00300
C401        C  0.03302818  0.07737344  0.43062391    -0.08880
C402        C  0.06140311  0.07935031  0.42910775    -0.06250
C403        C  0.08273003  0.09656436  0.40481079    -0.00320
C404        C  0.07559852  0.11329616  0.38178321    -0.08780
C405        C  0.09778271  0.13340519  0.35628080     0.61770
H406        H  0.04092685  0.12260747  0.36409041     0.12290
H407        H  0.06710257  0.06719068  0.44728434     0.12300
C408        C  0.01221078  0.05929042  0.45912336     0.61830
F409        F  0.08604061  0.14740660  0.33636283    -0.23340
F410        F  0.10471453  0.11491911  0.33695446    -0.20670
F411        F  0.12367042  0.15676131  0.37153248    -0.20350
F412        F  0.98640182  0.03322158  0.44724699    -0.20400
F413        F  0.00430847  0.07819016  0.47641128    -0.20720
F414        F  0.02600660  0.04905215  0.48134946    -0.23390
C415        C  0.32046129  0.09888522  0.33126201    -0.06230
C416        C  0.33243521  0.09991557  0.36313838    -0.00300
C417        C  0.31645100  0.10180844  0.39116994    -0.08880
C418        C  0.29027835  0.10352446  0.38526961    -0.06250
C419        C  0.27697800  0.09949143  0.35388618    -0.00320
C420        C  0.29228551  0.09712298  0.32616103    -0.08780
C421        C  0.27832595  0.09071552  0.29177340     0.61590
H422        H  0.33225320  0.09706432  0.31005684     0.12290
H423        H  0.27866537  0.10594181  0.40641498     0.12300
C424        C  0.32293431  0.10078635  0.42807718     0.61830
F425        F  0.29652629  0.08751369  0.26873536    -0.23340
F426        F  0.27427418  0.11503426  0.28200452    -0.20670
F427        F  0.25058776  0.06331671  0.29170638    -0.20350
F428        F  0.32419607  0.12623122  0.44368470    -0.20400
F429        F  0.34926410  0.10101769  0.43638672    -0.20720
F430        F  0.29908899  0.07412555  0.44130973    -0.23390
C431        C  0.49586435  0.37433323  0.49032381    -0.06230
C432        C  0.49837672  0.35385430  0.46847741    -0.00300
C433        C  0.01407663  0.33848393  0.47906354    -0.08880
C434        C  0.02718877  0.34499116  0.51121181    -0.06250
C435        C  0.02323347  0.36467380  0.03314587    -0.00320
C436        C  0.00628315  0.37845060  0.02266546    -0.08780
C437        C  0.99753832  0.39597464  0.04631321     0.61590
H438        H  0.48431384  0.38648840  0.48224858     0.12290
H439        H  0.04109608  0.33535225  0.51917937     0.12300
C440        C  0.01687978  0.31555309  0.45685382     0.61830
F441        F  0.97831589  0.40494485  0.03211328    -0.23340
F442        F  0.02318922  0.42245593  0.05755289    -0.20670
F443        F  0.98231894  0.37631786  0.07209434    -0.20350
F444        F  0.03253225  0.33051507  0.42873420    -0.20400
F445        F  0.48826335  0.29156851  0.44816940    -0.20720
F446        F  0.03238413  0.30274769  0.47224088    -0.23390
C447        C  0.49694219  0.33351536  0.22101488    -0.06230
C448        C  0.02569747  0.36027419  0.21794201    -0.00300
C449        C  0.04196930  0.37503948  0.24746867    -0.08880
C450        C  0.02717508  0.36587193  0.27785617    -0.06250
C451        C  0.49680283  0.34252973  0.28029610    -0.00320
C452        C  0.48181355  0.32446790  0.25156120    -0.08780
C453        C  0.45094349  0.29485270  0.25104540     0.61590
H454        H  0.48514885  0.32064188  0.19895955     0.12290
H455        H  0.03861656  0.37922992  0.29982529     0.12300
C456        C  0.07317301  0.40347587  0.24761867     0.61830
F457        F  0.43290382  0.29656985  0.22645112    -0.23340
F458        F  0.43537910  0.28879911  0.28025767    -0.20670
F459        F  0.45511268  0.26999629  0.24406793    -0.20350
F460        F  0.06965206  0.42856647  0.24046145    -0.20400
F461        F  0.09184186  0.40039305  0.22520539    -0.20720
F462        F  0.08725928  0.40866344  0.27800522    -0.23390
C463        C  0.43373741  0.46030003  0.34247609    -0.06230
C464        C  0.40964810  0.43281801  0.35535623    -0.00300
C465        C  0.38331747  0.43366062  0.36533524    -0.08880
C466        C  0.38445131  0.46269379  0.36682356    -0.06250
C467        C  0.41095370  0.49107683  0.35968102    -0.00320
C468        C  0.43533364  0.48945571  0.34477803    -0.08780
C469        C  0.46285438  0.01790010  0.33075284     0.61590
H470        H  0.45169506  0.45882584  0.33071092     0.12290
H471        H  0.36450234  0.46334961  0.37429812     0.12300
C472        C  0.35346388  0.40418482  0.37239618     0.61830
F473        F  0.48014397  0.00986780  0.31133227    -0.23340
F474        F  0.48121461  0.03664936  0.35614024    -0.20670
F475        F  0.45359497  0.03442676  0.31117039    -0.20350
F476        F  0.35589825  0.39034558  0.40077813    -0.20400
F477        F  0.34577615  0.38369878  0.34618127    -0.20720
F478        F  0.32987848  0.41012863  0.37670304    -0.23390
C479        C  0.45583808  0.21803927  0.35860087    -0.06230
C480        C  0.43699518  0.19402004  0.37987728    -0.00300
C481        C  0.42222024  0.20061400  0.40538078    -0.08880
C482        C  0.42530648  0.23026588  0.40742243    -0.06250
C483        C  0.44054838  0.25296641  0.38335045    -0.00320
C484        C  0.45903199  0.24786330  0.36089701    -0.08780
C485        C  0.48436881  0.27404660  0.34212017     0.61590
H486        H  0.46862065  0.21341750  0.34044768     0.12290
H487        H  0.41486979  0.23550808  0.42754753     0.12300
C488        C  0.40051175  0.17544397  0.42791349     0.61830
F489        F  0.00446325  0.26571584  0.32931427    -0.23340
F490        F  0.50071110  0.29923768  0.36290727    -0.20670
F491        F  0.47223114  0.28202758  0.31633917    -0.20350
F492        F  0.41579171  0.16501310  0.44734309    -0.20400
F493        F  0.37954481  0.15170007  0.40830620    -0.20720
F494        F  0.38526612  0.18520433  0.44844212    -0.23390
C495        C  0.05708452  0.43504668  0.36501009    -0.06230
C496        C  0.03102136  0.43779812  0.36342477    -0.00300
C497        C  0.03465143  0.46786374  0.36331883    -0.08880
C498        C  0.06392746  0.49406898  0.36673694    -0.06250
C499        C  0.09039861  0.49171381  0.36769720    -0.00320
C500        C  0.08674174  0.46123937  0.36480475    -0.08780
C501        C  0.11211210  0.45392967  0.35965856     0.61590
H502        H  0.05420392  0.41188652  0.36427125     0.12290
H503        H  0.06621468  0.01690255  0.36803866     0.12300
C504        C  0.00784992  0.47228276  0.35771214     0.61830
F505        F  0.10385401  0.43211275  0.33481706    -0.23340
F506        F  0.11634578  0.44117447  0.38793503    -0.20670
F507        F  0.13925832  0.47910752  0.35036048    -0.20350
F508        F  0.48480267  0.45413137  0.37933700    -0.20400
F509        F  0.49821497  0.46355209  0.32554081    -0.20720
F510        F  0.01521704  0.50293402  0.36207238    -0.23390
C511        C  0.29825981  0.19000380  0.38082031    -0.06230
C512        C  0.27259879  0.19255116  0.37431263    -0.00300
C513        C  0.27619631  0.22273866  0.37111285    -0.08880
C514        C  0.30567816  0.24921327  0.37332560    -0.06250
C515        C  0.33144793  0.24668359  0.37995971    -0.00320
C516        C  0.32744260  0.21654968  0.38423683    -0.08780
C517        C  0.35400893  0.21263486  0.39264191     0.61590
H518        H  0.29515479  0.16691886  0.38360262     0.12290
H519        H  0.30881356  0.27231438  0.37052994     0.12300
C520        C  0.24908356  0.22717814  0.36596866     0.61830
F521        F  0.34597793  0.18165975  0.39487394    -0.23340
F522        F  0.36560817  0.22682664  0.42274277    -0.20670
F523        F  0.37557146  0.22628676  0.36836028    -0.20350
F524        F  0.22842699  0.21272912  0.39090896    -0.20400
F525        F  0.23534738  0.21457134  0.33607443    -0.20720
F526        F  0.25733688  0.25830648  0.36605744    -0.23390
C527        C  0.37128927  0.39490279  0.00274692    -0.06230
C528        C  0.34506980  0.37265501  0.01851377    -0.00300
C529        C  0.32829204  0.34224228  0.00475735    -0.08880
C530        C  0.33854665  0.33534134  0.47540801    -0.06250
C531        C  0.36587412  0.35712903  0.46075387    -0.00320
C532        C  0.38294919  0.38747557  0.47504050    -0.08780
C533        C  0.41379671  0.41198443  0.46210494     0.61590
H534        H  0.38324698  0.41809697  0.01325382     0.12290
H535        H  0.32626694  0.31217181  0.46477868     0.12300
C536        C  0.30028140  0.31687287  0.02138243     0.61830
F537        F  0.42454144  0.44043655  0.47779732    -0.23340
F538        F  0.41175626  0.41660301  0.42900386    -0.20670
F539        F  0.43494084  0.40269339  0.46713857    -0.20350
F540        F  0.27788362  0.32467210  0.02119214    -0.20400
F541        F  0.30723561  0.31337615  0.05347503    -0.20720
F542        F  0.28892294  0.28844694  0.00545781    -0.23390
C543        C  0.37700729  0.36181288  0.21993809    -0.06230
C544        C  0.34839018  0.35847684  0.21610202    -0.00300
C545        C  0.32688119  0.34551048  0.24147484    -0.08880
C546        C  0.33565624  0.33777030  0.27133325    -0.06250
C547        C  0.36536425  0.34318570  0.27631845    -0.00320
C548        C  0.38642122  0.35514428  0.24971349    -0.08780
C549        C  0.41926826  0.36276077  0.25224541     0.61590
H550        H  0.39288378  0.37225462  0.19992867     0.12290
H551        H  0.31956589  0.32824194  0.29128171     0.12300
C552        C  0.29489786  0.33968141  0.23653374     0.61830
F553        F  0.43536431  0.37639054  0.22398255    -0.23340
F554        F  0.42018497  0.33585279  0.25745404    -0.20670
F555        F  0.43409599  0.38372555  0.27738214    -0.20350
F556        F  0.28147662  0.31969573  0.21008136    -0.20400
F557        F  0.29557525  0.36728037  0.23009381    -0.20720
F558        F  0.27710644  0.32640046  0.26400179    -0.23390
O559        O  0.42949907  0.40095282  0.83544127    -0.80590
O560        O  0.45657607  0.35002155  0.94038670    -0.80610
O561        O  0.36480704  0.33334431  0.90777659    -0.80620
O562        O  0.49341166  0.38783219  0.88195676    -0.80560
O563        O  0.40369022  0.34780523  0.94117708    -0.80680
O564        O  0.48317724  0.40297386  0.83668338    -0.80600
O565        O  0.48443179  0.33765003  0.91075555    -0.80590
O566        O  0.39793932  0.38202684  0.87494851    -0.80630
C567        C  0.41232270  0.40383846  0.85534799     1.09100
C568        C  0.47929957  0.34650541  0.93816683     1.08990
C569        C  0.37860657  0.34584140  0.93487313     1.09120
C570        C  0.50079297  0.40860060  0.86093884     1.09000
O571        O  0.45524043  0.33890475  0.81183682    -0.80590
O572        O  0.37386443  0.28599200  0.91147188    -0.80670
O573        O  0.35835733  0.33570759  0.83529396    -0.80600
O574        O  0.44217493  0.29863996  0.85969983    -0.80580
O575        O  0.43024356  0.28915267  0.91137597    -0.80630
O576        O  0.39768472  0.33533895  0.81384668    -0.80600
O577        O  0.49604639  0.34642787  0.83944525    -0.80560
O578        O  0.37334029  0.29356424  0.85887920    -0.80630
Co579      Co  0.44018125  0.36725677  0.83014907     1.51530
Co580      Co  0.41693820  0.32015106  0.92282156     1.51690
Co581      Co  0.38883716  0.33889247  0.86591274     1.51570
Co582      Co  0.46579919  0.34411548  0.86904524     1.51470
O583        O  0.42988298  0.34775488  0.88095799    -1.42520
C584        C  0.48202311  0.34218521  0.81198232     1.09030
C585        C  0.36164704  0.27616867  0.88336695     1.09120
C586        C  0.37416543  0.33827146  0.80985169     1.09060
C587        C  0.43737030  0.28153267  0.88443508     1.09030
O588        O  0.45769251  0.11612545  0.81778539    -0.80590
O589        O  0.43735102  0.04671290  0.86919313    -0.80610
O590        O  0.99008481  0.10839012  0.88436918    -0.80620
O591        O  0.36164819  0.04215505  0.84087581    -0.80560
O592        O  0.47485512  0.07256108  0.92231566    -0.80680
O593        O  0.40369499  0.06614905  0.81291618    -0.80600
O594        O  0.38889838  0.02046520  0.88173278    -0.80590
O595        O  0.48293035  0.15468712  0.85098158    -0.80630
C596        C  0.47871974  0.14357650  0.82180160     1.09100
C597        C  0.41237945  0.02114832  0.86963416     1.08990
C598        C  0.99571321  0.09138551  0.90431171     1.09120
C599        C  0.37669112  0.04472989  0.81530621     1.09000
O600        O  0.37497712  0.09991031  0.83871978    -0.80590
O601        O  0.45659576  0.11180471  0.94163158    -0.80670
O602        O  0.43956369  0.15008835  0.89939157    -0.80600
O603        O  0.38518036  0.05988950  0.93527352    -0.80580
O604        O  0.41897532  0.04618549  0.93396802    -0.80630
O605        O  0.43078676  0.15145773  0.84644569    -0.80600
O606        O  0.36381639  0.08394587  0.88986155    -0.80560
O607        O  0.49294689  0.15540930  0.91982665    -0.80630
Co608      Co  0.41721243  0.10725440  0.83128585     1.51530
Co609      Co  0.44581906  0.07930610  0.90271628     1.51690
Co610      Co  0.46138716  0.12719889  0.89146648     1.51570
Co611      Co  0.37805435  0.05451783  0.88688094     1.51470
O612        O  0.42075022  0.09102156  0.87557563    -1.42520
C613        C  0.35913896  0.09541537  0.86454409     1.09030
C614        C  0.48035943  0.13944863  0.94538015     1.09120
C615        C  0.43470630  0.16312691  0.87530232     1.09060
C616        C  0.39668632  0.04518132  0.94799843     1.09030
O617        O  0.02571451  0.40299228  0.61913556    -0.80590
O618        O  0.15667084  0.48367985  0.59166596    -0.80610
O619        O  0.07569064  0.47074662  0.61606717    -0.80620
O620        O  0.06526236  0.40525391  0.55939601    -0.80560
O621        O  0.12274584  0.49634400  0.63508994    -0.80680
O622        O  0.04002590  0.36418859  0.58929139    -0.80600
O623        O  0.11760694  0.45737020  0.55870842    -0.80590
O624        O  0.02958283  0.43432064  0.65921928    -0.80630
C625        C  0.01353009  0.41561253  0.63635963     1.09100
C626        C  0.14347758  0.48055409  0.56421678     1.08990
C627        C  0.09888400  0.49632204  0.62426969     1.09120
C628        C  0.04359072  0.37807010  0.56210169     1.09000
O629        O  0.08146141  0.36937343  0.64085564    -0.80590
O630        O  0.12557572  0.45197721  0.68088213    -0.80670
O631        O  0.05727049  0.40251271  0.68131606    -0.80600
O632        O  0.14934285  0.42624284  0.58291711    -0.80580
O633        O  0.15730917  0.43863983  0.63536818    -0.80630
O634        O  0.02515264  0.35812109  0.65795884    -0.80600
O635        O  0.09401568  0.37175384  0.58837046    -0.80560
O636        O  0.09081426  0.46477576  0.68220332    -0.80630
Co637      Co  0.05723991  0.38924411  0.63163592     1.51530
Co638      Co  0.13777291  0.46493634  0.63531944     1.51690
Co639      Co  0.06649889  0.43534003  0.64498032     1.51570
Co640      Co  0.10562880  0.41589059  0.57492443     1.51470
O641        O  0.09691143  0.42851627  0.61923358    -1.42520
C642        C  0.08843922  0.35840966  0.61647713     1.09030
C643        C  0.11371705  0.46532269  0.69569807     1.09120
C644        C  0.03639898  0.37384284  0.68423147     1.09060
C645        C  0.16489490  0.43038253  0.60913710     1.09030
O646        O  0.18652912  0.15858324  0.85203050    -0.80590
O647        O  0.14340767  0.02116106  0.88432720    -0.80610
O648        O  0.16925431  0.06923101  0.80737394    -0.80620
O649        O  0.11343311  0.07664773  0.92401808    -0.80560
O650        O  0.18295086  0.03997614  0.83396026    -0.80680
O651        O  0.13431953  0.11264464  0.88589861    -0.80600
O652        O  0.12094512  0.04740546  0.87208745    -0.80590
O653        O  0.16935169  0.11955606  0.81913080    -0.80630
C654        C  0.17807309  0.14753131  0.82316328     1.09100
C655        C  0.11998592  0.02147439  0.87401190     1.08990
C656        C  0.16753800  0.04351724  0.81119763     1.09120
C657        C  0.11157796  0.09569898  0.90507232     1.09000
O658        O  0.18005497  0.15869029  0.92162155    -0.80590
O659        O  0.23078371  0.08309799  0.87954530    -0.80670
O660        O  0.23326814  0.15090273  0.84263566    -0.80600
O661        O  0.14630707  0.05053350  0.93579480    -0.80580
O662        O  0.19331000  0.06341624  0.92953287    -0.80630
O663        O  0.22619705  0.15164648  0.89632301    -0.80600
O664        O  0.17213180  0.11332781  0.93992548    -0.80560
O665        O  0.23255827  0.09655396  0.82800096    -0.80630
Co666      Co  0.18142822  0.12998806  0.89113656     1.51530
Co667      Co  0.18774731  0.05464414  0.88161387     1.51690
Co668      Co  0.19978906  0.10802486  0.82693343     1.51570
Co669      Co  0.14774497  0.08119401  0.90278413     1.51470
O670        O  0.18246302  0.09216680  0.87260092    -1.42520
C671        C  0.17500747  0.14029594  0.94555356     1.09030
C672        C  0.24531533  0.09324683  0.85337625     1.09120
C673        C  0.24257756  0.16332401  0.87108276     1.09060
C674        C  0.16985544  0.05122526  0.94676659     1.09030
O675        O  0.03962910  0.12363487  0.67394476    -0.80590
O676        O  0.11615616  0.16635269  0.57228429    -0.80610
O677        O  0.03001657  0.18247373  0.59987727    -0.80620
O678        O  0.10033085  0.12934048  0.62017001    -0.80560
O679        O  0.06215869  0.17213894  0.57430728    -0.80680
O680        O  0.09247997  0.12059065  0.67232845    -0.80600
O681        O  0.15662437  0.17127920  0.59933061    -0.80590
O682        O  0.03599613  0.13348023  0.62212924    -0.80630
C683        C  0.02549542  0.11563894  0.64659040     1.09100
C684        C  0.14126024  0.16564016  0.57257413     1.08990
C685        C  0.04017874  0.17798240  0.57286641     1.09120
C686        C  0.09591561  0.11182525  0.64411862     1.09000
O687        O  0.12401858  0.18416080  0.70117168    -0.80590
O688        O  0.10164520  0.23601963  0.59767839    -0.80670
O689        O  0.03400119  0.17371984  0.67304936    -0.80600
O690        O  0.15923816  0.21641974  0.64153509    -0.80580
O691        O  0.15007334  0.22912508  0.59458555    -0.80630
O692        O  0.07299552  0.18518190  0.70430745    -0.80600
O693        O  0.14612248  0.16551369  0.67149563    -0.80560
O694        O  0.07546602  0.22320209  0.64224869    -0.80630
Co695      Co  0.08316257  0.15522105  0.68491220     1.51530
Co696      Co  0.10594159  0.19845523  0.59095180     1.51690
Co697      Co  0.05777078  0.17917702  0.63059848     1.51570
Co698      Co  0.12889120  0.17394433  0.62939613     1.51470
O699        O  0.09623879  0.18124240  0.64262697    -1.42520
C700        C  0.14200392  0.17411444  0.69964409     1.09030
C701        C  0.09080907  0.24340380  0.62142703     1.09120
C702        C  0.04674120  0.18118130  0.70149922     1.09060
C703        C  0.16795040  0.23513940  0.61847714     1.09030
O704        O  0.39778614  0.41556220  0.64775646    -0.80590
O705        O  0.35945486  0.44944866  0.56911041    -0.80610
O706        O  0.35076749  0.38544733  0.57713786    -0.80620
O707        O  0.38395173  0.49935964  0.64831280    -0.80560
O708        O  0.31679867  0.39104545  0.54831602    -0.80680
O709        O  0.40923012  0.47413911  0.64404026    -0.80600
O710        O  0.34636942  0.48071157  0.59277787    -0.80590
O711        O  0.37143779  0.39199828  0.60272680    -0.80630
C712        C  0.39552601  0.40215943  0.62072857     1.09100
C713        C  0.35809461  0.47421198  0.56878303     1.08990
C714        C  0.33648633  0.38249959  0.54927657     1.09120
C715        C  0.40923279  0.49933154  0.64604161     1.09000
O716        O  0.37359911  0.46521033  0.70004057    -0.80590
O717        O  0.28856338  0.37364753  0.60888110    -0.80670
O718        O  0.34419880  0.36776133  0.65950016    -0.80600
O719        O  0.29479802  0.43813579  0.63294961    -0.80580
O720        O  0.29552265  0.42672828  0.58161897    -0.80630
O721        O  0.35095506  0.40320104  0.69550414    -0.80600
O722        O  0.32831199  0.45449739  0.68584442    -0.80560
O723        O  0.30802832  0.34309008  0.61145842    -0.80630
Co724      Co  0.38018861  0.43848828  0.66877681     1.51530
Co725      Co  0.32652744  0.41244569  0.59022999     1.51690
Co726      Co  0.33189925  0.38587496  0.62271879     1.51570
Co727      Co  0.33880520  0.46599547  0.63961776     1.51470
O728        O  0.34803722  0.43108861  0.63371319    -1.42520
C729        C  0.34916058  0.46432288  0.70672549     1.09030
C730        C  0.28486422  0.34614718  0.61063529     1.09120
C731        C  0.34563484  0.37623556  0.68908140     1.09060
C732        C  0.28159910  0.43081581  0.60534204     1.09030
C733        C  0.44049227  0.05668033  0.63948143    -0.06230
C734        C  0.43950348  0.02880941  0.64722052    -0.00300
C735        C  0.46743222  0.02996905  0.65607595    -0.08880
C736        C  0.49485196  0.05876214  0.65507167    -0.06250
C737        C  0.49577080  0.08600753  0.64471022    -0.00320
C738        C  0.46806295  0.08485048  0.63654543    -0.08780
C739        C  0.46757078  0.11275206  0.62299608     0.61590
H740        H  0.41939447  0.05625290  0.63521753     0.12290
H741        H  0.01614482  0.06026587  0.66200950     0.12300
C742        C  0.46891945  0.00167137  0.66784799     0.61830
F743        F  0.43842754  0.10687061  0.61625152    -0.23340
F744        F  0.48337191  0.12044305  0.59398337    -0.20670
F745        F  0.48094199  0.13729003  0.64500054    -0.20350
F746        F  0.46230727  0.48099845  0.64204341    -0.20400
F747        F  0.44856330  0.48728292  0.69315765    -0.20720
F748        F  0.99751157  0.00959357  0.67973691    -0.23390
C749        C  0.20331127  0.28554846  0.59413196    -0.06230
C750        C  0.19854527  0.26312800  0.61790066    -0.00300
C751        C  0.22306929  0.26781180  0.63876663    -0.08880
C752        C  0.25110003  0.29527506  0.63505546    -0.06250
C753        C  0.25459962  0.31864647  0.61321146    -0.00320
C754        C  0.22998912  0.31430181  0.59317614    -0.08780
C755        C  0.23095514  0.33995829  0.57204881     0.61590
H756        H  0.18557385  0.28072814  0.57650437     0.12290
H757        H  0.27052982  0.29908714  0.64973749     0.12300
C758        C  0.22045178  0.24402333  0.66399403     0.61830
F759        F  0.20520521  0.32956251  0.55251391    -0.23340
F760        F  0.25563909  0.35230922  0.55152453    -0.20670
F761        F  0.23287674  0.36307885  0.59247502    -0.20350
F762        F  0.21090870  0.21565796  0.64866794    -0.20400
F763        F  0.19999596  0.24080972  0.68806782    -0.20720
F764        F  0.24795276  0.25281434  0.67950219    -0.23390
C765        C  0.15021878  0.16603458  0.79094220    -0.06230
C766        C  0.17678011  0.16481022  0.79388328    -0.00300
C767        C  0.19346358  0.16781816  0.76450078    -0.08880
C768        C  0.18274015  0.17273656  0.73400118    -0.06250
C769        C  0.15363512  0.16906863  0.73137415    -0.00320
C770        C  0.13585829  0.16175439  0.76037114    -0.08780
C771        C  0.10123156  0.14401783  0.76095069     0.61590
H772        H  0.13770022  0.16404563  0.81283645     0.12290
H773        H  0.19598035  0.17738498  0.71178855     0.12300
C774        C  0.22180072  0.16497529  0.76488794     0.61830
F775        F  0.09122962  0.11690454  0.77848681    -0.23340
F776        F  0.08776235  0.13472706  0.73064948    -0.20670
F777        F  0.09076886  0.16170150  0.77580248    -0.20350
F778        F  0.21460160  0.13541487  0.77441771    -0.20400
F779        F  0.24309001  0.18652373  0.78643307    -0.20720
F780        F  0.23495881  0.17018889  0.73408797    -0.23390
C781        C  0.14017893  0.12629377  0.99179897    -0.06230
C782        C  0.16878305  0.14728312  0.97911949    -0.00300
C783        C  0.18949493  0.17307334  0.99848411    -0.08880
C784        C  0.18029138  0.17733655  0.52994067    -0.06250
C785        C  0.15092299  0.15702643  0.54183325    -0.00320
C786        C  0.13056438  0.13081251  0.52252389    -0.08780
C787        C  0.09898844  0.10712997  0.53426921     0.61590
H788        H  0.12479610  0.10653660  0.97682734     0.12290
H789        H  0.19551219  0.19733949  0.54489450     0.12300
C790        C  0.22100638  0.19563300  0.98603346     0.61830
F791        F  0.08507931  0.08127965  0.51377948    -0.23340
F792        F  0.08057767  0.12017721  0.53520104    -0.20670
F793        F  0.10110854  0.09701254  0.56523291    -0.20350
F794        F  0.21883536  0.21102528  0.95877458    -0.20400
F795        F  0.23563531  0.17956953  0.97738779    -0.20720
F796        F  0.23851606  0.21764224  0.50969669    -0.23390
C797        C  0.15391092  0.48651030  0.00577785    -0.06230
C798        C  0.15845824  0.50150837  0.53618195    -0.00300
C799        C  0.17250632  0.03438344  0.53733448    -0.08880
C800        C  0.17720502  0.05055387  0.50736742    -0.06250
C801        C  0.16877461  0.03454659  0.97711051    -0.00320
C802        C  0.15844598  0.50232632  0.97620708    -0.08780
C803        C  0.14902694  0.48379661  0.94451403     0.61590
H804        H  0.14431312  0.46148639  0.00542003     0.12290
H805        H  0.18622909  0.07547378  0.50739977     0.12300
C806        C  0.18140539  0.05196931  0.56968388     0.61830
F807        F  0.14324128  0.45367623  0.94894246    -0.23340
F808        F  0.17178577  0.49773571  0.92142639    -0.20670
F809        F  0.12266414  0.48229979  0.93324194    -0.20350
F810        F  0.20126229  0.04557545  0.58670289    -0.20400
F811        F  0.15579532  0.04294270  0.58818036    -0.20720
F812        F  0.19553149  0.08382431  0.56517613    -0.23390
C813        C  0.16510527  0.00491611  0.77162589    -0.06230
C814        C  0.15035189  0.01937988  0.78572370    -0.00300
C815        C  0.12247445  0.01418197  0.77121763    -0.08880
C816        C  0.11130348  0.49547141  0.74293720    -0.06250
C817        C  0.12686452  0.48245088  0.72753917    -0.00320
C818        C  0.15459868  0.98748854  0.74217914    -0.08780
C819        C  0.17443300  0.97668005  0.72605439     0.61590
H820        H  0.18642420  0.00945284  0.78259576     0.12290
H821        H  0.09013269  0.49169856  0.73217420     0.12300
C822        C  0.10268549  0.02704759  0.78323603     0.61830
F823        F  0.20102100  0.98561000  0.74364704    -0.23340
F824        F  0.18251430  0.98978699  0.69507979    -0.20670
F825        F  0.15879853  0.44456203  0.72383729    -0.20350
F826        F  0.11373427  0.04580355  0.81053583    -0.20400
F827        F  0.07420744  0.00247169  0.79076260    -0.20720
F828        F  0.09953011  0.54425053  0.75836824    -0.23390
C829        C  0.12243897  0.05190846  0.64129009    -0.06230
C830        C  0.09755345  0.02613560  0.62625491    -0.00300
C831        C  0.07210165  0.02941122  0.61696727    -0.08880
C832        C  0.07261919  0.05763043  0.62346705    -0.06250
C833        C  0.09717520  0.08267642  0.63926105    -0.00320
C834        C  0.12294952  0.07999982  0.64764163    -0.08780
C835        C  0.15127295  0.10655008  0.66303523     0.61590
H836        H  0.14176778  0.04982800  0.64877969     0.12290
H837        H  0.05335848  0.06025202  0.61689811     0.12300
C838        C  0.04310928  0.00277314  0.60335960     0.61830
F839        F  0.17368799  0.09906510  0.66887533    -0.23340
F840        F  0.14393264  0.11420468  0.69289585    -0.20670
F841        F  0.16323381  0.13162755  0.64199253    -0.20350
F842        F  0.03007182  0.48148691  0.62828545    -0.20400
F843        F  0.04898011  0.48972479  0.57627956    -0.20720
F844        F  0.02249172  0.01170827  0.59356063    -0.23390
C845        C  0.11669426  0.33011416  0.61642133    -0.06230
C846        C  0.08883644  0.32894959  0.62010668    -0.00300
C847        C  0.06211829  0.29964281  0.62527059    -0.08880
C848        C  0.06457000  0.27286234  0.62718143    -0.06250
C849        C  0.09214897  0.27385474  0.62252861    -0.00320
C850        C  0.11873419  0.30290047  0.61722558    -0.08780
C851        C  0.14873778  0.30499841  0.61092925     0.61590
H852        H  0.13674462  0.35249395  0.61195721     0.12290
H853        H  0.04447537  0.25038472  0.63102438     0.12300
C854        C  0.03080900  0.29582539  0.62789388     0.61830
F855        F  0.17247591  0.33547343  0.61123560    -0.23340
F856        F  0.14714741  0.29229305  0.58022025    -0.20670
F857        F  0.15454079  0.28886690  0.63488791    -0.20350
F858        F  0.02472403  0.30819785  0.60052307    -0.20400
F859        F  0.02955282  0.31039417  0.65616892    -0.20720
F860        F  0.00809691  0.26491756  0.62966164    -0.23390
C861        C  0.23494103  0.42303982  0.63352787    -0.06230
C862        C  0.24999172  0.42705066  0.60334370    -0.00300
C863        C  0.23514851  0.42905852  0.57440707    -0.08880
C864        C  0.20710251  0.42891894  0.57731384    -0.06250
C865        C  0.19326464  0.42721088  0.60806690    -0.00320
C866        C  0.20749751  0.42339088  0.63662266    -0.08780
C867        C  0.19525768  0.42153314  0.67095847     0.61590
H868        H  0.24559731  0.42062127  0.65559611     0.12290
H869        H  0.19625725  0.43124907  0.55534299     0.12300
C870        C  0.24900176  0.43204630  0.54072019     0.61830
F871        F  0.21016806  0.41380175  0.69447215    -0.23340
F872        F  0.16472895  0.39932070  0.67207924    -0.20670
F873        F  0.19960833  0.45037288  0.67922049    -0.20350
F874        F  0.25172184  0.40623448  0.53429158    -0.20400
F875        F  0.27739912  0.45852779  0.53979520    -0.20720
F876        F  0.23129857  0.43412496  0.51591406    -0.23390
C877        C  0.47691147  0.42653277  0.60459260    -0.06230
C878        C  0.48166682  0.40881834  0.62842183    -0.00300
C879        C  0.45555999  0.38286457  0.64177463    -0.08880
C880        C  0.42637834  0.37841833  0.63464461    -0.06250
C881        C  0.42204199  0.39821052  0.61345965    -0.00320
C882        C  0.44765014  0.42167611  0.59689911    -0.08780
C883        C  0.44370859  0.44077995  0.57042310     0.61590
H884        H  0.99613002  0.44370417  0.59114257     0.12290
H885        H  0.40666910  0.36027602  0.64701748     0.12300
C886        C  0.45849259  0.35951960  0.66286942     0.61830
F887        F  0.47114793  0.46234854  0.55679175    -0.23340
F888        F  0.43001317  0.45653493  0.58300410    -0.20670
F889        F  0.42562741  0.42089648  0.54570056    -0.20350
F890        F  0.47794064  0.37465582  0.68905049    -0.20400
F891        F  0.46982841  0.34464412  0.64389797    -0.20720
F892        F  0.43080788  0.33702198  0.67520331    -0.23390
C893        C  0.02572660  0.17190563  0.98013121    -0.06230
C894        C  0.49400197  0.15262494  0.97856913    -0.00300
C895        C  0.47731936  0.14670678  0.50821215    -0.08880
C896        C  0.99311414  0.15970488  0.53814625    -0.06250
C897        C  0.02490860  0.17454258  0.54014801    -0.00320
C898        C  0.04155242  0.18266157  0.51026430    -0.08780
C899        C  0.07595971  0.20301210  0.00966679     0.61590
H900        H  0.03848022  0.17702906  0.95750179     0.12290
H901        H  0.48056808  0.15636694  0.56053885     0.12300
C902        C  0.44344985  0.12465021  0.50909171     0.61830
F903        F  0.08616574  0.21520579  0.97865372    -0.23340
F904        F  0.08940024  0.18578533  0.51827232    -0.20670
F905        F  0.08530028  0.22776706  0.53128779    -0.20350
F906        F  0.43808491  0.09495357  0.50323684    -0.20400
F907        F  0.42892571  0.13243127  0.98539263    -0.20720
F908        F  0.43123754  0.12499262  0.53935801    -0.23390
C909        C  0.02787699  0.18008647  0.79294642    -0.06230
C910        C  0.49604239  0.16156774  0.79183395    -0.00300
C911        C  0.48141851  0.15853123  0.76063599    -0.08880
C912        C  0.49871508  0.16637482  0.73158652    -0.06250
C913        C  0.03037236  0.18097743  0.73243076    -0.00320
C914        C  0.04511687  0.19213296  0.76372720    -0.08780
C915        C  0.07728477  0.21987240  0.76641695     0.61590
H916        H  0.03920533  0.18525467  0.81674194     0.12290
H917        H  0.48730543  0.16143572  0.70784674     0.12300
C918        C  0.44965775  0.15375195  0.75671033     0.61830
F919        F  0.08433878  0.23094934  0.79849363    -0.23340
F920        F  0.07942474  0.24366523  0.74691473    -0.20670
F921        F  0.09887978  0.21271337  0.75644577    -0.20350
F922        F  0.45208449  0.18254674  0.75280037    -0.20400
F923        F  0.43127680  0.13949268  0.78322176    -0.20720
F924        F  0.43560363  0.13616205  0.72881137    -0.23390
C925        C  0.37900473  0.03947978  0.50573033    -0.06230
C926        C  0.38404906  0.02607132  0.97794353    -0.00300
C927        C  0.37765233  0.49486627  0.97947193    -0.08880
C928        C  0.37013089  0.47958969  0.00973448    -0.06250
C929        C  0.36724095  0.49360954  0.53843098    -0.00320
C930        C  0.37097983  0.02401097  0.53623903    -0.08780
C931        C  0.36735304  0.04067860  0.56564475     0.61590
H932        H  0.38193814  0.06251901  0.50342826     0.12290
H933        H  0.36561983  0.45590920  0.01083093     0.12300
C934        C  0.37570973  0.47657930  0.94881381     0.61830
F935        F  0.37574485  0.07119702  0.55867884    -0.23340
F936        F  0.38564168  0.04120389  0.59105224    -0.20670
F937        F  0.33738802  0.02558206  0.57553992    -0.20350
F938        F  0.40413000  0.48831528  0.93517369    -0.20400
F939        F  0.35591449  0.47858153  0.92686366    -0.20720
F940        F  0.36458411  0.44533208  0.95510403    -0.23390
C941        C  0.35837311  0.01311291  0.72897562    -0.06230
C942        C  0.34830995  0.48185681  0.73492352    -0.00300
C943        C  0.34265963  0.47012297  0.76727634    -0.08880
C944        C  0.34966261  0.99118616  0.79352392    -0.06250
C945        C  0.36297735  0.02316999  0.78757283    -0.00320
C946        C  0.36631607  0.03427841  0.75486701    -0.08780
C947        C  0.38168703  0.06858510  0.74689763     0.61590
H948        H  0.36263104  0.02133234  0.70376573     0.12290
H949        H  0.34693783  0.48319313  0.81874882     0.12300
C950        C  0.32974160  0.43580659  0.77362967     0.61830
F951        F  0.37646673  0.07357372  0.71454453    -0.23340
F952        F  0.41261240  0.08127771  0.75142359    -0.20670
F953        F  0.37107397  0.08345687  0.76708280    -0.20350
F954        F  0.34943564  0.42644348  0.76214761    -0.20400
F955        F  0.30211045  0.41927383  0.75739674    -0.20720
F956        F  0.32510112  0.42897744  0.80685465    -0.23390
C957        C  0.04686037  0.11061720  0.88229433    -0.06230
C958        C  0.02534231  0.09268648  0.90581297    -0.00300
C959        C  0.03302762  0.07737214  0.93062322    -0.08880
C960        C  0.06140268  0.07934930  0.92910707    -0.06250
C961        C  0.08272976  0.09656389  0.90481044    -0.00320
C962        C  0.07559814  0.11329567  0.88178296    -0.08780
C963        C  0.09778225  0.13340477  0.85628050     0.61770
H964        H  0.04092648  0.12260714  0.86409054     0.12290
H965        H  0.06710214  0.06718951  0.94728345     0.12300
C966        C  0.01220996  0.05928826  0.95912216     0.61830
F967        F  0.08603995  0.14740596  0.83636246    -0.23340
F968        F  0.10471427  0.11491882  0.83695420    -0.20670
F969        F  0.12366987  0.15676107  0.87153214    -0.20350
F970        F  0.98640091  0.03322000  0.94724498    -0.20400
F971        F  0.00430783  0.07818760  0.97641116    -0.20720
F972        F  0.02600541  0.04904893  0.98134752    -0.23390
C973        C  0.32046136  0.09888528  0.83126177    -0.06230
C974        C  0.33243539  0.09991598  0.86313816    -0.00300
C975        C  0.31645134  0.10180930  0.89116964    -0.08880
C976        C  0.29027869  0.10352529  0.88526923    -0.06250
C977        C  0.27697820  0.09949189  0.85388583    -0.00320
C978        C  0.29228560  0.09712311  0.82616075    -0.08780
C979        C  0.27832592  0.09071537  0.79177317     0.61590
H980        H  0.33225316  0.09706403  0.81005668     0.12290
H981        H  0.27866581  0.10594292  0.90641453     0.12300
C982        C  0.32293496  0.10078787  0.92807690     0.61830
F983        F  0.29652613  0.08751327  0.76873520    -0.23340
F984        F  0.27427419  0.11503407  0.78200403    -0.20670
F985        F  0.25058768  0.06331662  0.79170642    -0.20350
F986        F  0.32419687  0.12623303  0.94368390    -0.20400
F987        F  0.34926483  0.10101935  0.93638638    -0.20720
F988        F  0.29908975  0.07412733  0.94131000    -0.23390
C989        C  0.49586420  0.37433332  0.99032397    -0.06230
C990        C  0.49837672  0.35385460  0.96847739    -0.00300
C991        C  0.01407669  0.33848428  0.97906338    -0.08880
C992        C  0.02718877  0.34499135  0.01121167    -0.06250
C993        C  0.02323352  0.36467373  0.53314589    -0.00320
C994        C  0.00628323  0.37845051  0.52266536    -0.08780
C995        C  0.99753832  0.39597454  0.54631302     0.61590
H996        H  0.48431361  0.38648845  0.98224885     0.12290
H997        H  0.04109611  0.33535244  0.01917914     0.12300
C998        C  0.01687995  0.31555358  0.95685352     0.61830
F999        F  0.97831588  0.40494469  0.53211298    -0.23340
F1000       F  0.02318918  0.42245587  0.55755270    -0.20670
F1001       F  0.98231891  0.37631777  0.57209414    -0.20350
F1002       F  0.03253248  0.33051574  0.92873399    -0.20400
F1003       F  0.48826358  0.29156902  0.94816892    -0.20720
F1004       F  0.03238428  0.30274813  0.97224049    -0.23390
C1005       C  0.49694197  0.33351559  0.72101481    -0.06230
C1006       C  0.02569739  0.36027403  0.71794185    -0.00300
C1007       C  0.04196961  0.37503891  0.74746845    -0.08880
C1008       C  0.02717540  0.36587177  0.77785598    -0.06250
C1009       C  0.49680303  0.34253002  0.78029604    -0.00320
C1010       C  0.48181353  0.32446819  0.75156123    -0.08780
C1011       C  0.45094342  0.29485305  0.75104564     0.61590
H1012       H  0.48514840  0.32064225  0.69895951     0.12290
H1013       H  0.03861716  0.37922974  0.79982503     0.12300
C1014       C  0.07317376  0.40347465  0.74761844     0.61830
F1015       F  0.43290348  0.29657037  0.72645182    -0.23340
F1016       F  0.43537945  0.28879932  0.78025821    -0.20670
F1017       F  0.45511245  0.26999662  0.74406762    -0.20350
F1018       F  0.06965361  0.42856604  0.74046290    -0.20400
F1019       F  0.09184177  0.40039183  0.72520399    -0.20720
F1020       F  0.08726047  0.40866076  0.77800460    -0.23390
C1021       C  0.43373748  0.46030049  0.84247594    -0.06230
C1022       C  0.40964828  0.43281845  0.85535619    -0.00300
C1023       C  0.38331761  0.43366093  0.86533529    -0.08880
C1024       C  0.38445138  0.46269405  0.86682377    -0.06250
C1025       C  0.41095373  0.49107712  0.85968126    -0.00320
C1026       C  0.43533357  0.48945610  0.84477792    -0.08780
C1027       C  0.46285379  0.01790032  0.83075218     0.61590
H1028       H  0.45169513  0.45882638  0.83071064     0.12290
H1029       H  0.36450241  0.46334981  0.87429846     0.12300
C1030       C  0.35346404  0.40418508  0.87239616     0.61830
F1031       F  0.48014313  0.00986799  0.81133124    -0.23340
F1032       F  0.48121436  0.03664973  0.85613930    -0.20670
F1033       F  0.45359401  0.03442683  0.81117000    -0.20350
F1034       F  0.35589841  0.39034579  0.90077808    -0.20400
F1035       F  0.34577636  0.38369910  0.84618121    -0.20720
F1036       F  0.32987859  0.41012881  0.87670302    -0.23390
C1037       C  0.45583910  0.21804007  0.85860101    -0.06230
C1038       C  0.43699589  0.19402070  0.87987714    -0.00300
C1039       C  0.42222049  0.20061450  0.90538025    -0.08880
C1040       C  0.42530673  0.23026638  0.90742194    -0.06250
C1041       C  0.44054892  0.25296703  0.88335017    -0.00320
C1042       C  0.45903286  0.24786408  0.86089705    -0.08780
C1043       C  0.48436983  0.27404751  0.84212049     0.61590
H1044       H  0.46862196  0.21341842  0.84044810     0.12290
H1045       H  0.41486975  0.23550843  0.92754684     0.12300
C1046       C  0.40051127  0.17544421  0.92791218     0.61830
F1047       F  0.00446447  0.26571689  0.82931493    -0.23340
F1048       F  0.50071170  0.29923863  0.86290766    -0.20670
F1049       F  0.47223241  0.28202836  0.81633913    -0.20350
F1050       F  0.41579042  0.16501256  0.94734198    -0.20400
F1051       F  0.37954463  0.15170091  0.90830407    -0.20720
F1052       F  0.38526543  0.18520448  0.94844060    -0.23390
C1053       C  0.05708462  0.43504727  0.86500993    -0.06230
C1054       C  0.03102152  0.43779881  0.86342469    -0.00300
C1055       C  0.03465168  0.46786448  0.86331868    -0.08880
C1056       C  0.06392778  0.49406966  0.86673682    -0.06250
C1057       C  0.09039886  0.49171436  0.86769701    -0.00320
C1058       C  0.08674187  0.46123989  0.86480446    -0.08780
C1059       C  0.11211209  0.45393007  0.85965784     0.61590
H1060       H  0.05420395  0.41188708  0.86427104     0.12290
H1061       H  0.06621488  0.01690346  0.86803871     0.12300
C1062       C  0.00785024  0.47228362  0.85771191     0.61830
F1063       F  0.10385381  0.43211346  0.83481595    -0.23340
F1064       F  0.11634573  0.44117448  0.88793404    -0.20670
F1065       F  0.13925838  0.47910792  0.85035995    -0.20350
F1066       F  0.48480305  0.45413243  0.87933687    -0.20400
F1067       F  0.49821518  0.46355273  0.82554061    -0.20720
F1068       F  0.01521749  0.50293494  0.86207190    -0.23390
C1069       C  0.29825995  0.19000436  0.88081964    -0.06230
C1070       C  0.27259887  0.19255173  0.87431241    -0.00300
C1071       C  0.27619635  0.22273923  0.87111282    -0.08880
C1072       C  0.30567821  0.24921385  0.87332548    -0.06250
C1073       C  0.33144803  0.24668415  0.87995925    -0.00320
C1074       C  0.32744275  0.21655024  0.88423604    -0.08780
C1075       C  0.35400912  0.21263544  0.89264087     0.61590
H1076       H  0.29515496  0.16691943  0.88360177     0.12290
H1077       H  0.30881359  0.27231497  0.87053000     0.12300
C1078       C  0.24908356  0.22717869  0.86596887     0.61830
F1079       F  0.34597819  0.18166032  0.89487240    -0.23340
F1080       F  0.36560822  0.22682685  0.92274190    -0.20670
F1081       F  0.37557176  0.22628772  0.86835938    -0.20350
F1082       F  0.22842711  0.21272964  0.89090926    -0.20400
F1083       F  0.23534725  0.21457191  0.83607467    -0.20720
F1084       F  0.25733687  0.25830703  0.86605772    -0.23390
C1085       C  0.37128923  0.39490310  0.50274648    -0.06230
C1086       C  0.34506967  0.37265551  0.51851334    -0.00300
C1087       C  0.32829188  0.34224269  0.50475715    -0.08880
C1088       C  0.33854678  0.33534120  0.97540801    -0.06250
C1089       C  0.36587417  0.35712906  0.96075388    -0.00320
C1090       C  0.38294920  0.38747551  0.97504074    -0.08780
C1091       C  0.41379668  0.41198453  0.96210522     0.61590
H1092       H  0.38324704  0.41809733  0.51325327     0.12290
H1093       H  0.32626710  0.31217174  0.96477850     0.12300
C1094       C  0.30028118  0.31687346  0.52138232     0.61830
F1095       F  0.42454137  0.44043652  0.97779787    -0.23340
F1096       F  0.41175616  0.41660332  0.92900421    -0.20670
F1097       F  0.43494089  0.40269354  0.96713858    -0.20350
F1098       F  0.27788347  0.32467280  0.52119178    -0.20400
F1099       F  0.30723533  0.31337692  0.55347500    -0.20720
F1100       F  0.28892265  0.28844741  0.50545794    -0.23390
C1101       C  0.37700808  0.36181395  0.71993779    -0.06230
C1102       C  0.34839106  0.35847811  0.71610163    -0.00300
C1103       C  0.32688204  0.34551196  0.74147443    -0.08880
C1104       C  0.33565693  0.33777168  0.77133288    -0.06250
C1105       C  0.36536484  0.34318679  0.77631815    -0.00320
C1106       C  0.38642188  0.35514528  0.74971324    -0.08780
C1107       C  0.41926885  0.36276160  0.75224526     0.61590
H1108       H  0.39288461  0.37225555  0.69992837     0.12290
H1109       H  0.31956653  0.32824342  0.79128131     0.12300
C1110       C  0.29489881  0.33968318  0.73653324     0.61830
F1111       F  0.43536499  0.37639126  0.72398241    -0.23340
F1112       F  0.42018540  0.33585355  0.75745400    -0.20670
F1113       F  0.43409660  0.38372639  0.77738197    -0.20350
F1114       F  0.28147742  0.31969731  0.71008103    -0.20400
F1115       F  0.29557647  0.36728222  0.73009296    -0.20720
F1116       F  0.27710738  0.32640260  0.76400136    -0.23390
O1117       O  0.42949907  0.90095231  0.33544149    -0.80590
O1118       O  0.45657606  0.85002115  0.44038697    -0.80610
O1119       O  0.36480704  0.83334400  0.40777697    -0.80620
O1120       O  0.49341173  0.88783132  0.38195680    -0.80560
O1121       O  0.40369027  0.84780512  0.44117742    -0.80680
O1122       O  0.48317714  0.90297309  0.33668358    -0.80600
O1123       O  0.48443147  0.83764918  0.41075583    -0.80590
O1124       O  0.39793916  0.88202634  0.37494861    -0.80630
C1125       C  0.41232266  0.90383799  0.35534813     1.09100
C1126       C  0.47929946  0.84650483  0.43816706     1.08990
C1127       C  0.37860662  0.84584127  0.43487343     1.09120
C1128       C  0.50079301  0.90859973  0.36093890     1.09000
O1129       O  0.45524002  0.83890389  0.31183714    -0.80590
O1130       O  0.37386425  0.78599171  0.41147257    -0.80670
O1131       O  0.35835709  0.83570685  0.33529440    -0.80600
O1132       O  0.44217416  0.79863912  0.35970032    -0.80580
O1133       O  0.43024320  0.78915213  0.41137658    -0.80630
O1134       O  0.39768449  0.83533825  0.31384711    -0.80600
O1135       O  0.49604589  0.84642669  0.33944542    -0.80560
O1136       O  0.37334019  0.79356365  0.35887982    -0.80630
Co1137     Co  0.44018107  0.86725611  0.33014937     1.51530
Co1138     Co  0.41693808  0.82015073  0.42282205     1.51690
Co1139     Co  0.38883704  0.83889193  0.36591310     1.51570
Co1140     Co  0.46579886  0.84411463  0.36904551     1.51470
O1141       O  0.42988288  0.84775441  0.38095836    -1.42520
C1142       C  0.48202267  0.84218431  0.31198251     1.09030
C1143       C  0.36164693  0.77616818  0.38336765     1.09120
C1144       C  0.37416515  0.83827068  0.30985213     1.09060
C1145       C  0.43736960  0.78153191  0.38443563     1.09030
O1146       O  0.45769178  0.61612553  0.31778438    -0.80590
O1147       O  0.43735099  0.54671278  0.36919215    -0.80610
O1148       O  0.99008515  0.60839086  0.38436881    -0.80620
O1149       O  0.36164775  0.54215478  0.34087591    -0.80560
O1150       O  0.47485533  0.57256100  0.42231437    -0.80680
O1151       O  0.40369380  0.56614886  0.31291477    -0.80600
O1152       O  0.38889847  0.52046515  0.38173235    -0.80590
O1153       O  0.48292947  0.65468700  0.35098104    -0.80630
C1154       C  0.47871896  0.64357657  0.32180097     1.09100
C1155       C  0.41237946  0.52114818  0.36963356     1.08990
C1156       C  0.99571366  0.59138625  0.40431125     1.09120
C1157       C  0.37669005  0.54472950  0.31530579     1.09000
O1158       O  0.37497650  0.59990991  0.33871958    -0.80590
O1159       O  0.45659619  0.61180465  0.44163079    -0.80670
O1160       O  0.43956253  0.65008740  0.39939144    -0.80600
O1161       O  0.38518123  0.55989007  0.43527314    -0.80580
O1162       O  0.41897576  0.54618555  0.43396716    -0.80630
O1163       O  0.43078595  0.65145727  0.34644556    -0.80600
O1164       O  0.36381673  0.58394608  0.38986155    -0.80560
O1165       O  0.49294653  0.65540972  0.41982589    -0.80630
Co1166     Co  0.41721171  0.60725417  0.33128518     1.51530
Co1167     Co  0.44581926  0.57930602  0.40271524     1.51690
Co1168     Co  0.46138675  0.62719879  0.39146602     1.51570
Co1169     Co  0.37805451  0.55451788  0.38688074     1.51470
O1170       O  0.42075016  0.59102127  0.37557478    -1.42520
C1171       C  0.35913873  0.59541516  0.36454415     1.09030
C1172       C  0.48035954  0.63944881  0.44537938     1.09120
C1173       C  0.43470512  0.66312606  0.37530234     1.09060
C1174       C  0.39668709  0.54518176  0.44799790     1.09030
O1175       O  0.02571462  0.90299215  0.11913567    -0.80590
O1176       O  0.15667089  0.98367976  0.09166568    -0.80610
O1177       O  0.07569063  0.97074635  0.11606721    -0.80620
O1178       O  0.06526242  0.90525377  0.05939603    -0.80560
O1179       O  0.12274590  0.99634385  0.13508978    -0.80680
O1180       O  0.04002592  0.86418846  0.08929141    -0.80600
O1181       O  0.11760705  0.95736994  0.05870811    -0.80590
O1182       O  0.02958301  0.93432035  0.15921955    -0.80630
C1183       C  0.01353020  0.91561229  0.13635991     1.09100
C1184       C  0.14347763  0.98055392  0.06421647     1.08990
C1185       C  0.09888399  0.99632180  0.12426964     1.09120
C1186       C  0.04359074  0.87807001  0.06210172     1.09000
O1187       O  0.08146147  0.86937324  0.14085562    -0.80590
O1188       O  0.12557606  0.95197717  0.18088197    -0.80670
O1189       O  0.05727087  0.90251255  0.18131607    -0.80600
O1190       O  0.14934289  0.92624254  0.08291694    -0.80580
O1191       O  0.15730937  0.93863982  0.13536794    -0.80630
O1192       O  0.02515275  0.85812101  0.15795901    -0.80600
O1193       O  0.09401566  0.87175359  0.08837043    -0.80560
O1194       O  0.09081454  0.96477562  0.18220326    -0.80630
Co1195     Co  0.05724001  0.88924397  0.13163593     1.51530
Co1196     Co  0.13777306  0.96493626  0.13531923     1.51690
Co1197     Co  0.06649907  0.93533982  0.14498037     1.51570
Co1198     Co  0.10562885  0.91589036  0.07492432     1.51470
O1199       O  0.09691157  0.92851611  0.11923348    -1.42520
C1200       C  0.08843920  0.85840941  0.11647710     1.09030
C1201       C  0.11371733  0.96532253  0.19569800     1.09120
C1202       C  0.03639914  0.87384280  0.18423162     1.09060
C1203       C  0.16489498  0.93038233  0.10913692     1.09030
O1204       O  0.18652924  0.65858297  0.35203071    -0.80590
O1205       O  0.14340738  0.52116073  0.38432747    -0.80610
O1206       O  0.16925410  0.56923061  0.30737418    -0.80620
O1207       O  0.11343275  0.57664766  0.42401826    -0.80560
O1208       O  0.18295065  0.53997577  0.33396062    -0.80680
O1209       O  0.13431972  0.61264490  0.38589915    -0.80600
O1210       O  0.12094465  0.54740500  0.37208776    -0.80590
O1211       O  0.16935157  0.61955578  0.31913096    -0.80630
C1212       C  0.17807309  0.64753106  0.32316348     1.09100
C1213       C  0.11998559  0.52147397  0.37401217     1.08990
C1214       C  0.16753785  0.54351685  0.31119789     1.09120
C1215       C  0.11157810  0.59569946  0.40507289     1.09000
O1216       O  0.18005548  0.65869028  0.42162180    -0.80590
O1217       O  0.23078334  0.58309781  0.37954580    -0.80670
O1218       O  0.23326800  0.65090237  0.34263589    -0.80600
O1219       O  0.14630661  0.55053319  0.43579504    -0.80580
O1220       O  0.19330958  0.56341608  0.42953318    -0.80630
O1221       O  0.22619708  0.65164578  0.39632327    -0.80600
O1222       O  0.17213153  0.61332747  0.43992566    -0.80560
O1223       O  0.23255795  0.59655348  0.32800139    -0.80630
Co1224     Co  0.18142829  0.62998781  0.39113687     1.51530
Co1225     Co  0.18774698  0.55464385  0.38161423     1.51690
Co1226     Co  0.19978884  0.60802447  0.32693368     1.51570
Co1227     Co  0.14774455  0.58119367  0.40278431     1.51470
O1228       O  0.18246259  0.59216637  0.37260110    -1.42520
C1229       C  0.17500770  0.64029582  0.44555376     1.09030
C1230       C  0.24531498  0.59324647  0.35337677     1.09120
C1231       C  0.24257752  0.66332347  0.37108305     1.09060
C1232       C  0.16985502  0.55122506  0.44676687     1.09030
O1233       O  0.03962857  0.62363442  0.17394549    -0.80590
O1234       O  0.11615565  0.66635206  0.07228482    -0.80610
O1235       O  0.03001611  0.68247322  0.09987781    -0.80620
O1236       O  0.10033034  0.62933998  0.12017048    -0.80560
O1237       O  0.06215818  0.67213819  0.07430809    -0.80680
O1238       O  0.09247947  0.62059011  0.17232892    -0.80600
O1239       O  0.15662390  0.67127868  0.09933110    -0.80590
O1240       O  0.03599547  0.63347967  0.12212998    -0.80630
C1241       C  0.02549478  0.61563846  0.14659120     1.09100
C1242       C  0.14125978  0.66563963  0.07257462     1.08990
C1243       C  0.04017833  0.67798178  0.07286705     1.09120
C1244       C  0.09591516  0.61182477  0.14411909     1.09000
O1245       O  0.12401817  0.68416024  0.20117219    -0.80590
O1246       O  0.10164476  0.73601905  0.09767876    -0.80670
O1247       O  0.03400091  0.67371967  0.17304981    -0.80600
O1248       O  0.15923765  0.71641919  0.14153561    -0.80580
O1249       O  0.15007290  0.72912446  0.09458601    -0.80630
O1250       O  0.07299513  0.68518144  0.20430804    -0.80600
O1251       O  0.14612203  0.66551316  0.17149601    -0.80560
O1252       O  0.07546565  0.72320167  0.14224906    -0.80630
Co1253     Co  0.08316211  0.65522053  0.18491277     1.51530
Co1254     Co  0.10594112  0.69845461  0.09095233     1.51690
Co1255     Co  0.05777034  0.67917653  0.13059898     1.51570
Co1256     Co  0.12889071  0.67394381  0.12939661     1.51470
O1257       O  0.09623832  0.68124188  0.14262753    -1.42520
C1258       C  0.14200355  0.67411393  0.19964449     1.09030
C1259       C  0.09080867  0.74340332  0.12142733     1.09120
C1260       C  0.04674095  0.68118122  0.20149964     1.09060
C1261       C  0.16794996  0.73513878  0.11847762     1.09030
O1262       O  0.39778575  0.91556144  0.14775735    -0.80590
O1263       O  0.35945454  0.94944786  0.06911079    -0.80610
O1264       O  0.35076739  0.88544662  0.07713838    -0.80620
O1265       O  0.38395119  0.99935881  0.14831362    -0.80560
O1266       O  0.31679848  0.89104458  0.04831654    -0.80680
O1267       O  0.40922974  0.97413839  0.14404163    -0.80600
O1268       O  0.34636912  0.98071073  0.09277840    -0.80590
O1269       O  0.37143769  0.89199768  0.10272747    -0.80630
C1270       C  0.39552583  0.90215885  0.12072938     1.09100
C1271       C  0.35809423  0.97421115  0.06878347     1.08990
C1272       C  0.33648623  0.88249886  0.04927709     1.09120
C1273       C  0.40923231  0.99933079  0.14604275     1.09000
O1274       O  0.37359816  0.96520918  0.20004153    -0.80590
O1275       O  0.28856316  0.87364665  0.10888159    -0.80670
O1276       O  0.34419850  0.86776044  0.15950062    -0.80600
O1277       O  0.29479760  0.93813476  0.13294990    -0.80580
O1278       O  0.29552238  0.92672736  0.08161927    -0.80630
O1279       O  0.35095419  0.90319986  0.19550469    -0.80600
O1280       O  0.32831121  0.95449634  0.18584483    -0.80560
O1281       O  0.30802815  0.84308925  0.11145881    -0.80630
Co1282     Co  0.38018798  0.93848733  0.16877774     1.51530
Co1283     Co  0.32652719  0.91244484  0.09023047     1.51690
Co1284     Co  0.33189902  0.88587415  0.12271926     1.51570
Co1285     Co  0.33880472  0.96599455  0.13961827     1.51470
O1286       O  0.34803691  0.93108781  0.13371373    -1.42520
C1287       C  0.34915959  0.96432178  0.20672613     1.09030
C1288       C  0.28486402  0.84614630  0.11063571     1.09120
C1289       C  0.34563426  0.87623449  0.18908188     1.09060
C1290       C  0.28159879  0.93081489  0.10534228     1.09030
C1291       C  0.44049155  0.55667984  0.13948252    -0.06230
C1292       C  0.43950272  0.52880892  0.14722176    -0.00300
C1293       C  0.46743148  0.52996860  0.15607726    -0.08880
C1294       C  0.49485124  0.55876167  0.15507279    -0.06250
C1295       C  0.49577011  0.58600702  0.14471111    -0.00320
C1296       C  0.46806226  0.58484996  0.13654631    -0.08780
C1297       C  0.46757008  0.61275152  0.12299683     0.61590
H1298       H  0.41939374  0.55625242  0.13521869     0.12290
H1299       H  0.01614405  0.56026543  0.16201067     0.12300
C1300       C  0.46891870  0.50167099  0.16784959     0.61830
F1301       F  0.43842681  0.60687008  0.11625246    -0.23340
F1302       F  0.48337102  0.62044240  0.09398399    -0.20670
F1303       F  0.48094144  0.63728960  0.14500116    -0.20350
F1304       F  0.46230690  0.98099784  0.14204500    -0.20400
F1305       F  0.44856285  0.98728251  0.19315912    -0.20720
F1306       F  0.99751074  0.50959328  0.17973862    -0.23390
C1307       C  0.20331097  0.78554777  0.09413242    -0.06230
C1308       C  0.19854490  0.76312727  0.11790108    -0.00300
C1309       C  0.22306894  0.76781090  0.13876694    -0.08880
C1310       C  0.25109974  0.79527409  0.13505574    -0.06250
C1311       C  0.25459940  0.81864557  0.11321180    -0.00320
C1312       C  0.22998891  0.81430102  0.09317653    -0.08780
C1313       C  0.23095502  0.83995753  0.07204919     0.61590
H1314       H  0.18557350  0.78072757  0.07650493     0.12290
H1315       H  0.27052953  0.79908607  0.14973773     0.12300
C1316       C  0.22045134  0.74402233  0.16399426     0.61830
F1317       F  0.20520511  0.82956182  0.05251428    -0.23340
F1318       F  0.25563897  0.85230838  0.05152493    -0.20670
F1319       F  0.23287668  0.86307812  0.09247540    -0.20350
F1320       F  0.21090799  0.71565693  0.14866812    -0.20400
F1321       F  0.19999569  0.74080887  0.18806818    -0.20720
F1322       F  0.24795234  0.75281311  0.17950225    -0.23390
C1323       C  0.15021907  0.66603464  0.29094232    -0.06230
C1324       C  0.17678018  0.66481005  0.29388352    -0.00300
C1325       C  0.19346350  0.66781776  0.26450090    -0.08880
C1326       C  0.18273995  0.67273610  0.23400137    -0.06250
C1327       C  0.15363496  0.66906824  0.23137445    -0.00320
C1328       C  0.13585826  0.66175413  0.26037155    -0.08780
C1329       C  0.10123154  0.64401735  0.26095118     0.61590
H1330       H  0.13770002  0.66404585  0.31283776     0.12290
H1331       H  0.19598012  0.67738442  0.21178852     0.12300
C1332       C  0.22180054  0.66497471  0.26488794     0.61830
F1333       F  0.09122983  0.61690418  0.27848749    -0.23340
F1334       F  0.08776227  0.63472631  0.23065003    -0.20670
F1335       F  0.09076865  0.66170091  0.27580283    -0.20350
F1336       F  0.21460132  0.63541429  0.27441783    -0.20400
F1337       F  0.24309001  0.68652318  0.28643291    -0.20720
F1338       F  0.23495844  0.67018811  0.23408790    -0.23390
C1339       C  0.14017954  0.62629374  0.49179945    -0.06230
C1340       C  0.16878352  0.64728314  0.47911971    -0.00300
C1341       C  0.18949540  0.67307360  0.49848407    -0.08880
C1342       C  0.18029103  0.67733632  0.02994121    -0.06250
C1343       C  0.15092262  0.65702608  0.04183369    -0.00320
C1344       C  0.13056410  0.63081224  0.02252417    -0.08780
C1345       C  0.09898814  0.60712959  0.03426935     0.61590
H1346       H  0.12479673  0.60653637  0.47682804     0.12290
H1347       H  0.19551176  0.69733919  0.04489517     0.12300
C1348       C  0.22100675  0.69563327  0.48603319     0.61830
F1349       F  0.08507906  0.58127938  0.01377945    -0.23340
F1350       F  0.08057733  0.62017679  0.03520129    -0.20670
F1351       F  0.10110817  0.59701199  0.06523300    -0.20350
F1352       F  0.21883552  0.71102544  0.45877431    -0.20400
F1353       F  0.23563571  0.67956984  0.47738743    -0.20720
F1354       F  0.23851569  0.71764231  0.00969747    -0.23390
C1355       C  0.15391095  0.98651031  0.50577817    -0.06230
C1356       C  0.15845824  0.00150828  0.03618164    -0.00300
C1357       C  0.17250627  0.53438337  0.03733429    -0.08880
C1358       C  0.17720515  0.55055388  0.00736726    -0.06250
C1359       C  0.16877428  0.53454649  0.47711080    -0.00320
C1360       C  0.15844584  0.00232623  0.47620738    -0.08780
C1361       C  0.14902674  0.98379645  0.44451441     0.61590
H1362       H  0.14431321  0.96148641  0.50542043     0.12290
H1363       H  0.18622924  0.57547379  0.00739967     0.12300
C1364       C  0.18140513  0.55196917  0.06968374     0.61830
F1365       F  0.14324108  0.95367607  0.44894294    -0.23340
F1366       F  0.17178554  0.99773546  0.42142672    -0.20670
F1367       F  0.12266393  0.98229961  0.43324235    -0.20350
F1368       F  0.20126192  0.54557528  0.08670295    -0.20400
F1369       F  0.15579493  0.54294253  0.08818000    -0.20720
F1370       F  0.19553127  0.58382419  0.06517606    -0.23390
C1371       C  0.16510530  0.50491581  0.27162607    -0.06230
C1372       C  0.15035183  0.51937950  0.28572390    -0.00300
C1373       C  0.12247443  0.51418158  0.27121776    -0.08880
C1374       C  0.11130361  0.99547104  0.24293723    -0.06250
C1375       C  0.12686465  0.98245051  0.22753924    -0.00320
C1376       C  0.15459880  0.48748833  0.24217923    -0.08780
C1377       C  0.17443322  0.47667997  0.22605446     0.61590
H1378       H  0.18642422  0.50945256  0.28259598     0.12290
H1379       H  0.09013291  0.99169834  0.23217413     0.12300
C1380       C  0.10268539  0.52704711  0.28323616     0.61830
F1381       F  0.20102117  0.48560989  0.24364719    -0.23340
F1382       F  0.18251461  0.48978708  0.19507994    -0.20670
F1383       F  0.15879864  0.94456165  0.22383721    -0.20350
F1384       F  0.11373404  0.54580291  0.31053608    -0.20400
F1385       F  0.07420732  0.50247115  0.29076253    -0.20720
F1386       F  0.09953033  0.04425021  0.25836823    -0.23390
C1387       C  0.12243882  0.55190823  0.14129018    -0.06230
C1388       C  0.09755331  0.52613536  0.12625501    -0.00300
C1389       C  0.07210144  0.52941090  0.11696752    -0.08880
C1390       C  0.07261887  0.55763004  0.12346744    -0.06250
C1391       C  0.09717486  0.58267602  0.13926146    -0.00320
C1392       C  0.12294926  0.57999951  0.14764191    -0.08780
C1393       C  0.15127266  0.60654976  0.16303556     0.61590
H1394       H  0.14176770  0.54982784  0.14877965     0.12290
H1395       H  0.05335810  0.56025155  0.11689863     0.12300
C1396       C  0.04310907  0.50277279  0.10335991     0.61830
F1397       F  0.17368774  0.59906482  0.16887562    -0.23340
F1398       F  0.14393231  0.61420426  0.19289620    -0.20670
F1399       F  0.16323350  0.63162726  0.14199292    -0.20350
F1400       F  0.03007180  0.98148653  0.12828583    -0.20400
F1401       F  0.04897981  0.98972430  0.07627981    -0.20720
F1402       F  0.02249144  0.51170787  0.09356104    -0.23390
C1403       C  0.11669404  0.83011370  0.11642104    -0.06230
C1404       C  0.08883632  0.82894927  0.12010667    -0.00300
C1405       C  0.06211815  0.79964258  0.12527092    -0.08880
C1406       C  0.06456978  0.77286206  0.12718185    -0.06250
C1407       C  0.09214866  0.77385431  0.12252879    -0.00320
C1408       C  0.11873387  0.80289995  0.11722538    -0.08780
C1409       C  0.14873737  0.80499775  0.11092882     0.61590
H1410       H  0.13674440  0.85249342  0.11195667     0.12290
H1411       H  0.04447515  0.75038451  0.13102509     0.12300
C1412       C  0.03080894  0.79582529  0.12789450     0.61830
F1413       F  0.17247554  0.83547275  0.11123480    -0.23340
F1414       F  0.14714672  0.79229210  0.08021991    -0.20670
F1415       F  0.15454053  0.78886644  0.13488757    -0.20350
F1416       F  0.02472384  0.80819779  0.10052381    -0.20400
F1417       F  0.02955302  0.81039413  0.15616962    -0.20720
F1418       F  0.00809679  0.76491750  0.12966235    -0.23390
C1419       C  0.23494074  0.92303911  0.13352793    -0.06230
C1420       C  0.24999148  0.92704988  0.10334381    -0.00300
C1421       C  0.23514842  0.92905785  0.07440713    -0.08880
C1422       C  0.20710250  0.92891844  0.07731378    -0.06250
C1423       C  0.19326461  0.92721050  0.10806680    -0.00320
C1424       C  0.20749735  0.92339042  0.13662263    -0.08780
C1425       C  0.19525757  0.92153294  0.17095842     0.61590
H1426       H  0.24559692  0.92062046  0.15559621     0.12290
H1427       H  0.19625733  0.93124864  0.05534290     0.12300
C1428       C  0.24900175  0.93204558  0.04072031     0.61830
F1429       F  0.21016782  0.91380148  0.19447220    -0.23340
F1430       F  0.16472879  0.89932069  0.17207925    -0.20670
F1431       F  0.19960848  0.95037281  0.17922026    -0.20350
F1432       F  0.25172166  0.90623365  0.03429173    -0.20400
F1433       F  0.27739920  0.95852696  0.03979542    -0.20720
F1434       F  0.23129872  0.93412441  0.01591410    -0.23390
C1435       C  0.47691138  0.92653244  0.10459316    -0.06230
C1436       C  0.48166686  0.90881803  0.12842230    -0.00300
C1437       C  0.45556009  0.88286425  0.14177519    -0.08880
C1438       C  0.42637840  0.87841798  0.13464535    -0.06250
C1439       C  0.42204194  0.89821016  0.11346049    -0.00320
C1440       C  0.44765002  0.92167579  0.09689988    -0.08780
C1441       C  0.44370835  0.94077968  0.07042404     0.61590
H1442       H  0.99612986  0.94370383  0.09114303     0.12290
H1443       H  0.40666922  0.86027563  0.14701824     0.12300
C1444       C  0.45849278  0.85951929  0.16286988     0.61830
F1445       F  0.47114762  0.96234833  0.05679262    -0.23340
F1446       F  0.43001294  0.95653459  0.08300526    -0.20670
F1447       F  0.42562709  0.92089626  0.04570150    -0.20350
F1448       F  0.47794081  0.87465552  0.18905096    -0.20400
F1449       F  0.46982867  0.84464392  0.14389835    -0.20720
F1450       F  0.43080811  0.83702157  0.17520374    -0.23390
C1451       C  0.02572675  0.67190695  0.48013044    -0.06230
C1452       C  0.49400214  0.65262525  0.47856839    -0.00300
C1453       C  0.47731922  0.64670703  0.00821250    -0.08880
C1454       C  0.99311395  0.65970470  0.03814672    -0.06250
C1455       C  0.02490838  0.67454201  0.04014859    -0.00320
C1456       C  0.04155232  0.68266067  0.01026495    -0.08780
C1457       C  0.07595972  0.70301511  0.50966614     0.61590
H1458       H  0.03848033  0.67703117  0.45750093     0.12290
H1459       H  0.48056795  0.65636698  0.06053926     0.12300
C1460       C  0.44344953  0.62465143  0.00909183     0.61830
F1461       F  0.08616544  0.71520888  0.47865303    -0.23340
F1462       F  0.08939960  0.68578327  0.01827313    -0.20670
F1463       F  0.08530067  0.72776564  0.03128851    -0.20350
F1464       F  0.43808354  0.59495440  0.00323711    -0.20400
F1465       F  0.42892505  0.63242828  0.48539264    -0.20720
F1466       F  0.43123725  0.62499443  0.03935797    -0.23390
C1467       C  0.02787645  0.68008636  0.29294655    -0.06230
C1468       C  0.49604185  0.66156808  0.29183365    -0.00300
C1469       C  0.48141824  0.65853227  0.26063567    -0.08880
C1470       C  0.49871502  0.66637604  0.23158637    -0.06250
C1471       C  0.03037221  0.68097789  0.23243098    -0.00320
C1472       C  0.04511661  0.69213292  0.26372755    -0.08780
C1473       C  0.07728472  0.71987195  0.26641774     0.61590
H1474       H  0.03920460  0.68525406  0.31674217     0.12290
H1475       H  0.48730556  0.66143741  0.20784650     0.12300
C1476       C  0.44965740  0.65375272  0.25670976     0.61830
F1477       F  0.08433878  0.73094821  0.29849467    -0.23340
F1478       F  0.07942518  0.74366536  0.24691618    -0.20670
F1479       F  0.09887945  0.71271268  0.25644615    -0.20350
F1480       F  0.45208394  0.68254738  0.25279938    -0.20400
F1481       F  0.43127638  0.63949358  0.28322122    -0.20720
F1482       F  0.43560348  0.63616257  0.22881090    -0.23390
C1483       C  0.37900423  0.53947930  0.00573061    -0.06230
C1484       C  0.38404999  0.52607198  0.47794311    -0.00300
C1485       C  0.37765293  0.99486669  0.47947189    -0.08880
C1486       C  0.37013141  0.97959020  0.50973446    -0.06250
C1487       C  0.36724035  0.99360872  0.03843138    -0.00320
C1488       C  0.37097958  0.52401048  0.03623932    -0.08780
C1489       C  0.36735330  0.54067822  0.06564525     0.61590
H1490       H  0.38193753  0.56251850  0.00342864     0.12290
H1491       H  0.36562039  0.95590973  0.51083100     0.12300
C1492       C  0.37571035  0.97657961  0.44881385     0.61830
F1493       F  0.37574544  0.57119675  0.05867952    -0.23340
F1494       F  0.38564206  0.54120318  0.09105243    -0.20670
F1495       F  0.33738838  0.52558199  0.07554075    -0.20350
F1496       F  0.40413063  0.98831552  0.43517376    -0.20400
F1497       F  0.35591512  0.97858176  0.42686363    -0.20720
F1498       F  0.36458471  0.94533241  0.45510420    -0.23390
C1499       C  0.35836876  0.51311120  0.22897588    -0.06230
C1500       C  0.34830863  0.98185560  0.23492412    -0.00300
C1501       C  0.34265929  0.97012211  0.26727709    -0.08880
C1502       C  0.34966234  0.49118546  0.29352441    -0.06250
C1503       C  0.36297542  0.52316906  0.28757297    -0.00320
C1504       C  0.36631157  0.53427685  0.25486715    -0.08780
C1505       C  0.38167988  0.56858331  0.24689751     0.61590
H1506       H  0.36262524  0.52133037  0.20376585     0.12290
H1507       H  0.34693862  0.98319279  0.31874948     0.12300
C1508       C  0.32974192  0.93580587  0.27363073     0.61830
F1509       F  0.37645712  0.57357095  0.21454495    -0.23340
F1510       F  0.41260568  0.58127799  0.25142142    -0.20670
F1511       F  0.37106638  0.58345379  0.26708400    -0.20350
F1512       F  0.34943613  0.92644311  0.26214835    -0.20400
F1513       F  0.30211055  0.91927256  0.25739834    -0.20720
F1514       F  0.32510204  0.92897704  0.30685581    -0.23390
C1515       C  0.04686107  0.61061833  0.38229446    -0.06230
C1516       C  0.02534315  0.59268822  0.40581343    -0.00300
C1517       C  0.03302885  0.57737524  0.43062488    -0.08880
C1518       C  0.06140373  0.57935197  0.42910884    -0.06250
C1519       C  0.08273041  0.59656533  0.40481142    -0.00320
C1520       C  0.07559886  0.61329684  0.38178351    -0.08780
C1521       C  0.09778306  0.63340569  0.35628103     0.61770
H1522       H  0.04092699  0.62260757  0.36409001     0.12290
H1523       H  0.06710330  0.56719274  0.44728581     0.12300
C1524       C  0.01221180  0.55929333  0.45912497     0.61830
F1525       F  0.08604103  0.64740712  0.33636298    -0.23340
F1526       F  0.10471478  0.61491946  0.33695481    -0.20670
F1527       F  0.12367082  0.65676181  0.37153264    -0.20350
F1528       F  0.98640306  0.53322362  0.44724968    -0.20400
F1529       F  0.00430907  0.57819350  0.47641140    -0.20720
F1530       F  0.02600817  0.54905660  0.48135214    -0.23390
C1531       C  0.32046118  0.59888544  0.33126220    -0.06230
C1532       C  0.33243503  0.59991555  0.36313856    -0.00300
C1533       C  0.31645069  0.60180811  0.39117017    -0.08880
C1534       C  0.29027806  0.60352418  0.38526989    -0.06250
C1535       C  0.27697780  0.59949140  0.35388643    -0.00320
C1536       C  0.29228538  0.59712316  0.32616125    -0.08780
C1537       C  0.27832589  0.59071586  0.29177359     0.61590
H1538       H  0.33225317  0.59706477  0.31005698     0.12290
H1539       H  0.27866501  0.60594134  0.40641530     0.12300
C1540       C  0.32293377  0.60078553  0.42807740     0.61830
F1541       F  0.29652629  0.58751419  0.26873551    -0.23340
F1542       F  0.27427409  0.61503462  0.28200487    -0.20670
F1543       F  0.25058772  0.56331702  0.29170642    -0.20350
F1544       F  0.32419534  0.62623014  0.44368532    -0.20400
F1545       F  0.34926351  0.60101683  0.43638699    -0.20720
F1546       F  0.29908838  0.57412450  0.44130950    -0.23390
C1547       C  0.49586442  0.87433312  0.49032394    -0.06230
C1548       C  0.49837677  0.85385419  0.46847752    -0.00300
C1549       C  0.01407668  0.83848377  0.47906369    -0.08880
C1550       C  0.02718888  0.84499104  0.51121193    -0.06250
C1551       C  0.02323351  0.86467373  0.03314594    -0.00320
C1552       C  0.00628329  0.87845061  0.02266546    -0.08780
C1553       C  0.99753844  0.89597465  0.04631318     0.61590
H1554       H  0.48431390  0.88648828  0.48224874     0.12290
H1555       H  0.04109622  0.83535215  0.51917945     0.12300
C1556       C  0.01687979  0.81555289  0.45685398     0.61830
F1557       F  0.97831607  0.90494492  0.03211319    -0.23340
F1558       F  0.02318933  0.92245591  0.05755293    -0.20670
F1559       F  0.98231898  0.87631784  0.07209426    -0.20350
F1560       F  0.03253218  0.83051482  0.42873430    -0.20400
F1561       F  0.48826336  0.79156837  0.44816957    -0.20720
F1562       F  0.03238417  0.80274752  0.47224101    -0.23390
C1563       C  0.49694216  0.83351528  0.22101489    -0.06230
C1564       C  0.02569735  0.86027418  0.21794209    -0.00300
C1565       C  0.04196908  0.87503954  0.24746878    -0.08880
C1566       C  0.02717486  0.86587183  0.27785627    -0.06250
C1567       C  0.49680270  0.84252956  0.28029613    -0.00320
C1568       C  0.48181345  0.82446778  0.25156118    -0.08780
C1569       C  0.45094341  0.79485255  0.25104531     0.61590
H1570       H  0.48514889  0.82064179  0.19895955     0.12290
H1571       H  0.03861629  0.87922980  0.29982542     0.12300
C1572       C  0.07317268  0.90347609  0.24761879     0.61830
F1573       F  0.43290396  0.79656944  0.22645059    -0.23340
F1574       F  0.43537870  0.78879921  0.28025732    -0.20670
F1575       F  0.45511273  0.76999610  0.24406847    -0.20350
F1576       F  0.06965153  0.92856650  0.24046118    -0.20400
F1577       F  0.09184173  0.90039328  0.22520579    -0.20720
F1578       F  0.08725883  0.90866401  0.27800542    -0.23390
C1579       C  0.43373765  0.96030011  0.34247626    -0.06230
C1580       C  0.40964833  0.93281806  0.35535633    -0.00300
C1581       C  0.38331768  0.93366064  0.36533534    -0.08880
C1582       C  0.38445151  0.96269380  0.36682377    -0.06250
C1583       C  0.41095390  0.99107685  0.35968131    -0.00320
C1584       C  0.43533383  0.98945578  0.34477825    -0.08780
C1585       C  0.46285427  0.51790002  0.33075270     0.61590
H1586       H  0.45169532  0.95882597  0.33071110     0.12290
H1587       H  0.36450253  0.96334959  0.37429837     0.12300
C1588       C  0.35346407  0.90418481  0.37239616     0.61830
F1589       F  0.48014392  0.50986769  0.31133228    -0.23340
F1590       F  0.48121441  0.53664928  0.35614016    -0.20670
F1591       F  0.45359497  0.53442668  0.31117012    -0.20350
F1592       F  0.35589835  0.89034550  0.40077809    -0.20400
F1593       F  0.34577640  0.88369884  0.34618119    -0.20720
F1594       F  0.32987865  0.91012860  0.37670296    -0.23390
C1595       C  0.45583735  0.71803887  0.35860081    -0.06230
C1596       C  0.43699466  0.69401975  0.37987742    -0.00300
C1597       C  0.42222003  0.70061383  0.40538118    -0.08880
C1598       C  0.42530630  0.73026574  0.40742281    -0.06250
C1599       C  0.44054803  0.75296618  0.38335068    -0.00320
C1600       C  0.45903137  0.74786292  0.36089699    -0.08780
C1601       C  0.48436799  0.77404607  0.34211983     0.61590
H1602       H  0.46861969  0.71341699  0.34044743     0.12290
H1603       H  0.41486980  0.73550804  0.42754804     0.12300
C1604       C  0.40051194  0.67544396  0.42791434     0.61830
F1605       F  0.00446187  0.76571497  0.32931322    -0.23340
F1606       F  0.50071072  0.79923714  0.36290681    -0.20670
F1607       F  0.47223002  0.78202710  0.31633919    -0.20350
F1608       F  0.41579232  0.66501345  0.44734378    -0.20400
F1609       F  0.37954476  0.65169974  0.40830754    -0.20720
F1610       F  0.38526651  0.68520441  0.44844314    -0.23390
C1611       C  0.05708475  0.93504646  0.36501005    -0.06230
C1612       C  0.03102157  0.93779787  0.36342472    -0.00300
C1613       C  0.03465163  0.96786349  0.36331870    -0.08880
C1614       C  0.06392766  0.99406875  0.36673677    -0.06250
C1615       C  0.09039882  0.99171360  0.36769707    -0.00320
C1616       C  0.08674198  0.96123916  0.36480468    -0.08780
C1617       C  0.11211238  0.95392951  0.35965859     0.61590
H1618       H  0.05420416  0.91188629  0.36427126     0.12290
H1619       H  0.06621449  0.51690279  0.36803888     0.12300
C1620       C  0.00785010  0.97228248  0.35771202     0.61830
F1621       F  0.10385432  0.93211245  0.33481724    -0.23340
F1622       F  0.11634615  0.94117449  0.38793515    -0.20670
F1623       F  0.13925855  0.97910735  0.35036038    -0.20350
F1624       F  0.48480291  0.95413124  0.37933697    -0.20400
F1625       F  0.49821508  0.96355179  0.32554073    -0.20720
F1626       F  0.01521722  0.00293375  0.36207215    -0.23390
C1627       C  0.29825979  0.69000383  0.38082083    -0.06230
C1628       C  0.27259881  0.69255119  0.37431284    -0.00300
C1629       C  0.27619635  0.72273868  0.37111290    -0.08880
C1630       C  0.30567820  0.74921329  0.37332566    -0.06250
C1631       C  0.33144794  0.74668362  0.37996000    -0.00320
C1632       C  0.32744257  0.71654972  0.38423741    -0.08780
C1633       C  0.35400886  0.71263491  0.39264269     0.61590
H1634       H  0.29515475  0.66691891  0.38360331     0.12290
H1635       H  0.30881362  0.77231440  0.37052984     0.12300
C1636       C  0.24908361  0.72717817  0.36596864     0.61830
F1637       F  0.34597781  0.68165980  0.39487512    -0.23340
F1638       F  0.36560821  0.72682698  0.42274340    -0.20670
F1639       F  0.37557133  0.72628651  0.36836094    -0.20350
F1640       F  0.22842704  0.71272923  0.39090896    -0.20400
F1641       F  0.23534743  0.71457132  0.33607442    -0.20720
F1642       F  0.25733696  0.75830652  0.36605733    -0.23390
C1643       C  0.37128919  0.89490274  0.00274700    -0.06230
C1644       C  0.34506969  0.87265497  0.01851380    -0.00300
C1645       C  0.32829195  0.84224224  0.00475740    -0.08880
C1646       C  0.33854678  0.83534137  0.47540812    -0.06250
C1647       C  0.36587424  0.85712911  0.46075401    -0.00320
C1648       C  0.38294926  0.88747564  0.47504068    -0.08780
C1649       C  0.41379676  0.91198456  0.46210512     0.61590
H1650       H  0.38324690  0.91809693  0.01325391     0.12290
H1651       H  0.32626709  0.81217186  0.46477874     0.12300
C1652       C  0.30028125  0.81687287  0.02138243     0.61830
F1653       F  0.42454142  0.94043667  0.47779751    -0.23340
F1654       F  0.41175629  0.91660313  0.42900404    -0.20670
F1655       F  0.43494095  0.90269360  0.46713875    -0.20350
F1656       F  0.27788349  0.82467214  0.02119199    -0.20400
F1657       F  0.30723535  0.81337616  0.05347507    -0.20720
F1658       F  0.28892281  0.78844692  0.00545784    -0.23390
C1659       C  0.37700759  0.86181291  0.21993818    -0.06230
C1660       C  0.34839055  0.85847705  0.21610209    -0.00300
C1661       C  0.32688155  0.84551083  0.24147491    -0.08880
C1662       C  0.33565651  0.83777060  0.27133334    -0.06250
C1663       C  0.36536446  0.84318581  0.27631856    -0.00320
C1664       C  0.38642144  0.85514424  0.24971360    -0.08780
C1665       C  0.41926840  0.86276048  0.25224552     0.61590
H1666       H  0.39288409  0.87225453  0.19992875     0.12290
H1667       H  0.31956615  0.82824234  0.29128181     0.12300
C1668       C  0.29489829  0.83968194  0.23653378     0.61830
F1669       F  0.43536449  0.87639018  0.22398266    -0.23340
F1670       F  0.42018488  0.83585237  0.25745414    -0.20670
F1671       F  0.43409624  0.88372523  0.27738225    -0.20350
F1672       F  0.28147696  0.81969620  0.21008145    -0.20400
F1673       F  0.29557584  0.86728097  0.23009373    -0.20720
F1674       F  0.27710685  0.82640114  0.26400185    -0.23390
O1675       O  0.42949898  0.90095272  0.83544135    -0.80590
O1676       O  0.45657616  0.85002154  0.94038679    -0.80610
O1677       O  0.36480708  0.83334424  0.90777678    -0.80620
O1678       O  0.49341168  0.88783220  0.88195681    -0.80560
O1679       O  0.40369027  0.84780519  0.94117726    -0.80680
O1680       O  0.48317720  0.90297385  0.83668346    -0.80600
O1681       O  0.48443187  0.83765005  0.91075557    -0.80590
O1682       O  0.39793932  0.88202678  0.87494868    -0.80630
C1683       C  0.41232265  0.90383838  0.85534811     1.09100
C1684       C  0.47929967  0.84650542  0.93816687     1.08990
C1685       C  0.37860661  0.84584133  0.93487332     1.09120
C1686       C  0.50079295  0.90860061  0.86093890     1.09000
O1687       O  0.45524047  0.83890475  0.81183689    -0.80590
O1688       O  0.37386449  0.78599195  0.91147209    -0.80670
O1689       O  0.35835730  0.83570746  0.83529419    -0.80600
O1690       O  0.44217500  0.79863997  0.85969989    -0.80580
O1691       O  0.43024365  0.78915267  0.91137605    -0.80630
O1692       O  0.39768469  0.83533880  0.81384691    -0.80600
O1693       O  0.49604645  0.84642791  0.83944531    -0.80560
O1694       O  0.37334032  0.79356418  0.85887941    -0.80630
Co1695     Co  0.44018122  0.86725670  0.83014919     1.51530
Co1696     Co  0.41693827  0.82015103  0.92282170     1.51690
Co1697     Co  0.38883717  0.83889241  0.86591293     1.51570
Co1698     Co  0.46579923  0.84411549  0.86904530     1.51470
O1699       O  0.42988301  0.84775485  0.88095813    -1.42520
C1700       C  0.48202317  0.84218525  0.81198238     1.09030
C1701       C  0.36164708  0.77616862  0.88336717     1.09120
C1702       C  0.37416537  0.83827128  0.80985192     1.09060
C1703       C  0.43737038  0.78153268  0.88443515     1.09030
O1704       O  0.45769261  0.61612545  0.81778541    -0.80590
O1705       O  0.43735108  0.54671294  0.86919316    -0.80610
O1706       O  0.99008486  0.60839008  0.88436927    -0.80620
O1707       O  0.36164825  0.54215507  0.84087572    -0.80560
O1708       O  0.47485510  0.57256108  0.92231578    -0.80680
O1709       O  0.40369510  0.56614908  0.81291620    -0.80600
O1710       O  0.38889842  0.52046522  0.88173273    -0.80590
O1711       O  0.48293047  0.65468712  0.85098158    -0.80630
C1712       C  0.47871984  0.64357650  0.82180160     1.09100
C1713       C  0.41237950  0.52114837  0.86963414     1.08990
C1714       C  0.99571322  0.59138544  0.90431181     1.09120
C1715       C  0.37669123  0.54472996  0.81530614     1.09000
O1716       O  0.37497720  0.59991035  0.83871973    -0.80590
O1717       O  0.45659571  0.61180471  0.94163163    -0.80670
O1718       O  0.43956382  0.65008840  0.89939155    -0.80600
O1719       O  0.38518030  0.55988944  0.93527347    -0.80580
O1720       O  0.41897529  0.54618547  0.93396802    -0.80630
O1721       O  0.43078687  0.65145777  0.84644567    -0.80600
O1722       O  0.36381637  0.58394584  0.88986147    -0.80560
O1723       O  0.49294695  0.65540923  0.91982672    -0.80630
Co1724     Co  0.41721253  0.60725443  0.83128585     1.51530
Co1725     Co  0.44581907  0.57930611  0.90271633     1.51690
Co1726     Co  0.46138724  0.62719888  0.89146648     1.51570
Co1727     Co  0.37805437  0.55451782  0.88688088     1.51470
O1728       O  0.42075026  0.59102158  0.87557564    -1.42520
C1729       C  0.35913899  0.59541537  0.86454402     1.09030
C1730       C  0.48035942  0.63944858  0.94538022     1.09120
C1731       C  0.43470643  0.66312695  0.87530230     1.09060
C1732       C  0.39668627  0.54518128  0.94799839     1.09030
O1733       O  0.02571466  0.90299222  0.61913566    -0.80590
O1734       O  0.15667098  0.98367991  0.59166593    -0.80610
O1735       O  0.07569073  0.97074661  0.61606716    -0.80620
O1736       O  0.06526253  0.90525386  0.55939604    -0.80560
O1737       O  0.12274595  0.99634404  0.63508990    -0.80680
O1738       O  0.04002614  0.86418858  0.58929149    -0.80600
O1739       O  0.11760711  0.95737018  0.55870838    -0.80590
O1740       O  0.02958298  0.93432063  0.65921933    -0.80630
C1741       C  0.01353023  0.91561247  0.63635973     1.09100
C1742       C  0.14347772  0.98055410  0.56421673     1.08990
C1743       C  0.09888409  0.99632204  0.62426965     1.09120
C1744       C  0.04359091  0.87807005  0.56210176     1.09000
O1745       O  0.08146169  0.86937357  0.64085580    -0.80590
O1746       O  0.12557588  0.95197727  0.68088212    -0.80670
O1747       O  0.05727066  0.90251275  0.68131611    -0.80600
O1748       O  0.14934305  0.92624288  0.58291718    -0.80580
O1749       O  0.15730936  0.93863993  0.63536823    -0.80630
O1750       O  0.02515287  0.85812107  0.65795893    -0.80600
O1751       O  0.09401591  0.87175389  0.58837061    -0.80560
O1752       O  0.09081440  0.96477580  0.68220330    -0.80630
Co1753     Co  0.05724012  0.88924414  0.63163601     1.51530
Co1754     Co  0.13777306  0.96493641  0.63531944     1.51690
Co1755     Co  0.06649904  0.93534004  0.64498034     1.51570
Co1756     Co  0.10562898  0.91589060  0.57492448     1.51470
O1757       O  0.09691159  0.92851632  0.61923360    -1.42520
C1758       C  0.08843950  0.85840978  0.61647731     1.09030
C1759       C  0.11371718  0.96532272  0.69569806     1.09120
C1760       C  0.03639916  0.87384287  0.68423156     1.09060
C1761       C  0.16489507  0.93038257  0.60913719     1.09030
O1762       O  0.18652911  0.65858325  0.85203073    -0.80590
O1763       O  0.14340769  0.52116107  0.88432722    -0.80610
O1764       O  0.16925428  0.56923107  0.80737400    -0.80620
O1765       O  0.11343312  0.57664768  0.92401827    -0.80560
O1766       O  0.18295085  0.53997617  0.83396023    -0.80680
O1767       O  0.13431955  0.61264462  0.88589885    -0.80600
O1768       O  0.12094514  0.54740549  0.87208755    -0.80590
O1769       O  0.16935163  0.61955607  0.81913104    -0.80630
C1770       C  0.17807303  0.64753132  0.82316352     1.09100
C1771       C  0.11998594  0.52147441  0.87401195     1.08990
C1772       C  0.16753799  0.54351729  0.81119762     1.09120
C1773       C  0.11157798  0.59569895  0.90507255     1.09000
O1774       O  0.18005499  0.65869025  0.92162181    -0.80590
O1775       O  0.23078374  0.58309796  0.87954527    -0.80670
O1776       O  0.23326812  0.65090277  0.84263583    -0.80600
O1777       O  0.14630713  0.55053346  0.93579486    -0.80580
O1778       O  0.19331006  0.56341621  0.92953285    -0.80630
O1779       O  0.22619706  0.65164646  0.89632319    -0.80600
O1780       O  0.17213181  0.61332775  0.93992568    -0.80560
O1781       O  0.23255829  0.59655404  0.82800097    -0.80630
Co1782     Co  0.18142823  0.62998804  0.89113676     1.51530
Co1783     Co  0.18774733  0.55464414  0.88161387     1.51690
Co1784     Co  0.19978904  0.60802490  0.82693354     1.51570
Co1785     Co  0.14774499  0.58119400  0.90278427     1.51470
O1786       O  0.18246303  0.59216681  0.87260103    -1.42520
C1787       C  0.17500748  0.64029588  0.94555380     1.09030
C1788       C  0.24531534  0.59324685  0.85337623     1.09120
C1789       C  0.24257755  0.66332402  0.87108294     1.09060
C1790       C  0.16985552  0.55122523  0.94676660     1.09030
O1791       O  0.03962905  0.62363500  0.67394467    -0.80590
O1792       O  0.11615632  0.66635272  0.57228442    -0.80610
O1793       O  0.03001679  0.68247397  0.59987705    -0.80620
O1794       O  0.10033089  0.62934048  0.62017016    -0.80560
O1795       O  0.06215888  0.67213918  0.57430696    -0.80680
O1796       O  0.09247986  0.62059064  0.67232859    -0.80600
O1797       O  0.15662447  0.67127921  0.59933091    -0.80590
O1798       O  0.03599619  0.63348038  0.62212912    -0.80630
C1799       C  0.02549542  0.61563910  0.64659028     1.09100
C1800       C  0.14126043  0.66564022  0.57257437     1.08990
C1801       C  0.04017891  0.67798264  0.57286615     1.09120
C1802       C  0.09591556  0.61182524  0.64411880     1.09000
O1803       O  0.12401851  0.68416078  0.70117185    -0.80590
O1804       O  0.10164543  0.73601974  0.59767835    -0.80670
O1805       O  0.03400122  0.67371999  0.67304925    -0.80600
O1806       O  0.15923816  0.71641969  0.64153539    -0.80580
O1807       O  0.15007350  0.72912502  0.59458575    -0.80630
O1808       O  0.07299554  0.68518204  0.70430734    -0.80600
O1809       O  0.14612241  0.66551363  0.67149587    -0.80560
O1810       O  0.07546621  0.72320220  0.64224862    -0.80630
Co1811     Co  0.08316252  0.65522110  0.68491223     1.51530
Co1812     Co  0.10594175  0.69845529  0.59095182     1.51690
Co1813     Co  0.05777088  0.67917715  0.63059838     1.51570
Co1814     Co  0.12889124  0.67394432  0.62939634     1.51470
O1815       O  0.09623881  0.68124241  0.64262698    -1.42520
C1816       C  0.14200383  0.67411440  0.69964431     1.09030
C1817       C  0.09080931  0.74340392  0.62142697     1.09120
C1818       C  0.04674120  0.68118140  0.70149913     1.09060
C1819       C  0.16795050  0.73513932  0.61847742     1.09030
O1820       O  0.39778615  0.91556190  0.64775682    -0.80590
O1821       O  0.35945485  0.94944844  0.56911069    -0.80610
O1822       O  0.35076761  0.88544719  0.57713808    -0.80620
O1823       O  0.38395174  0.99935936  0.64831317    -0.80560
O1824       O  0.31679870  0.89104522  0.54831634    -0.80680
O1825       O  0.40923018  0.97413885  0.64404078    -0.80600
O1826       O  0.34636940  0.98071132  0.59277823    -0.80590
O1827       O  0.37143792  0.89199817  0.60272705    -0.80630
C1828       C  0.39552610  0.90215926  0.62072886     1.09100
C1829       C  0.35809453  0.97421173  0.56878333     1.08990
C1830       C  0.33648641  0.88249943  0.54927683     1.09120
C1831       C  0.40923282  0.99933127  0.64604203     1.09000
O1832       O  0.37359907  0.96520998  0.70004099    -0.80590
O1833       O  0.28856349  0.87364728  0.60888147    -0.80670
O1834       O  0.34419886  0.86776106  0.65950037    -0.80600
O1835       O  0.29479802  0.93813548  0.63294997    -0.80580
O1836       O  0.29552267  0.92672800  0.58161932    -0.80630
O1837       O  0.35095495  0.90320067  0.69550441    -0.80600
O1838       O  0.32831197  0.95449703  0.68584476    -0.80560
O1839       O  0.30802848  0.84308987  0.61145862    -0.80630
Co1840     Co  0.38018859  0.93848797  0.66877720     1.51530
Co1841     Co  0.32652749  0.91244545  0.59023032     1.51690
Co1842     Co  0.33189936  0.88587474  0.62271902     1.51570
Co1843     Co  0.33880521  0.96599518  0.63961812     1.51470
O1844       O  0.34803729  0.93108838  0.63371350    -1.42520
C1845       C  0.34916053  0.96432253  0.70672586     1.09030
C1846       C  0.28486437  0.84614694  0.61063559     1.09120
C1847       C  0.34563476  0.87623521  0.68908162     1.09060
C1848       C  0.28159912  0.93081553  0.60534239     1.09030
C1849       C  0.44049227  0.55668061  0.63948130    -0.06230
C1850       C  0.43950345  0.52880964  0.64722020    -0.00300
C1851       C  0.46743219  0.52996922  0.65607556    -0.08880
C1852       C  0.49485194  0.55876229  0.65507131    -0.06250
C1853       C  0.49577080  0.58600772  0.64471000    -0.00320
C1854       C  0.46806296  0.58485074  0.63654536    -0.08780
C1855       C  0.46757083  0.61275239  0.62299619     0.61590
H1856       H  0.41939448  0.55625323  0.63521751     0.12290
H1857       H  0.01614474  0.56026596  0.66200918     0.12300
C1858       C  0.46891937  0.50167150  0.66784754     0.61830
F1859       F  0.43842760  0.60687098  0.61625157    -0.23340
F1860       F  0.48337203  0.62044351  0.59398355    -0.20670
F1861       F  0.48094198  0.63729024  0.64500079    -0.20350
F1862       F  0.46230735  0.98099828  0.64204391    -0.20400
F1863       F  0.44856341  0.98728282  0.69315813    -0.20720
F1864       F  0.99751137  0.50959362  0.67973657    -0.23390
C1865       C  0.20331142  0.78554834  0.59413229    -0.06230
C1866       C  0.19854539  0.76312786  0.61790096    -0.00300
C1867       C  0.22306941  0.76781157  0.63876689    -0.08880
C1868       C  0.25110017  0.79527480  0.63505572    -0.06250
C1869       C  0.25459978  0.81864624  0.61321175    -0.00320
C1870       C  0.22998930  0.81430164  0.59317645    -0.08780
C1871       C  0.23095536  0.83995814  0.57204912     0.61590
H1872       H  0.18557398  0.78072809  0.57650474     0.12290
H1873       H  0.27052996  0.79908683  0.64973773     0.12300
C1874       C  0.22045185  0.74402304  0.66399424     0.61830
F1875       F  0.20520547  0.82956240  0.55251420    -0.23340
F1876       F  0.25563933  0.85230907  0.55152488    -0.20670
F1877       F  0.23287697  0.86307870  0.59247535    -0.20350
F1878       F  0.21090866  0.71565767  0.64866812    -0.20400
F1879       F  0.19999608  0.74080948  0.68806808    -0.20720
F1880       F  0.24795283  0.75281394  0.67950235    -0.23390
C1881       C  0.15021868  0.66603457  0.79094246    -0.06230
C1882       C  0.17678003  0.66481022  0.79388352    -0.00300
C1883       C  0.19346349  0.66781814  0.76450101    -0.08880
C1884       C  0.18274006  0.67273653  0.73400141    -0.06250
C1885       C  0.15363503  0.66906862  0.73137439    -0.00320
C1886       C  0.13585821  0.66175439  0.76037137    -0.08780
C1887       C  0.10123147  0.64401784  0.76095091     0.61590
H1888       H  0.13770025  0.66404568  0.81283652     0.12290
H1889       H  0.19598024  0.67738493  0.71178879     0.12300
C1890       C  0.22180061  0.66497524  0.76488814     0.61830
F1891       F  0.09122952  0.61690451  0.77848697    -0.23340
F1892       F  0.08776225  0.63472714  0.73064969    -0.20670
F1893       F  0.09076877  0.66170148  0.77580279    -0.20350
F1894       F  0.21460146  0.63541480  0.77441792    -0.20400
F1895       F  0.24308993  0.68652366  0.78643326    -0.20720
F1896       F  0.23495867  0.67018881  0.73408817    -0.23390
C1897       C  0.14017896  0.62629367  0.99179926    -0.06230
C1898       C  0.16878307  0.64728305  0.97911975    -0.00300
C1899       C  0.18949491  0.67307333  0.99848435    -0.08880
C1900       C  0.18029162  0.67733678  0.52994092    -0.06250
C1901       C  0.15092328  0.65702653  0.54183356    -0.00320
C1902       C  0.13056479  0.63081248  0.52252432    -0.08780
C1903       C  0.09898896  0.60712981  0.53426975     0.61590
H1904       H  0.12479616  0.60653647  0.97682766     0.12290
H1905       H  0.19551235  0.69733980  0.54489469     0.12300
C1906       C  0.22100634  0.69563302  0.98603369     0.61830
F1907       F  0.08508001  0.58127933  0.51378023    -0.23340
F1908       F  0.08057796  0.62017681  0.53520140    -0.20670
F1909       F  0.10110922  0.59701267  0.56523355    -0.20350
F1910       F  0.21883528  0.71102524  0.95877477    -0.20400
F1911       F  0.23563534  0.67956960  0.97738807    -0.20720
F1912       F  0.23851624  0.71764261  0.50969687    -0.23390
C1913       C  0.15391083  0.98651029  0.00577785    -0.06230
C1914       C  0.15845838  0.00150838  0.53618189    -0.00300
C1915       C  0.17250619  0.53438342  0.53733457    -0.08880
C1916       C  0.17720485  0.55055387  0.50736753    -0.06250
C1917       C  0.16877473  0.53454658  0.97711049    -0.00320
C1918       C  0.15844586  0.00232632  0.97620710    -0.08780
C1919       C  0.14902681  0.98379663  0.94451405     0.61590
H1920       H  0.14431303  0.96148639  0.00542002     0.12290
H1921       H  0.18622891  0.57547377  0.50739990     0.12300
C1922       C  0.18140530  0.55196928  0.56968399     0.61830
F1923       F  0.14324112  0.95367623  0.94894247    -0.23340
F1924       F  0.17178564  0.99773571  0.92142642    -0.20670
F1925       F  0.12266403  0.98229984  0.93324195    -0.20350
F1926       F  0.20126221  0.54557538  0.58670295    -0.20400
F1927       F  0.15579526  0.54294269  0.58818051    -0.20720
F1928       F  0.19553143  0.58382429  0.56517626    -0.23390
C1929       C  0.16510528  0.50491623  0.77162578    -0.06230
C1930       C  0.15035188  0.51937996  0.78572365    -0.00300
C1931       C  0.12247440  0.51418199  0.77121765    -0.08880
C1932       C  0.11130357  0.99547141  0.74293717    -0.06250
C1933       C  0.12686460  0.98245086  0.72753919    -0.00320
C1934       C  0.15459865  0.48748862  0.74217905    -0.08780
C1935       C  0.17443297  0.47668017  0.72605424     0.61590
H1936       H  0.18642425  0.50945300  0.78259560     0.12290
H1937       H  0.09013281  0.99169861  0.73217412     0.12300
C1938       C  0.10268542  0.52704756  0.78323611     0.61830
F1939       F  0.20102103  0.48561021  0.74364681    -0.23340
F1940       F  0.18251417  0.48978706  0.69507961    -0.20670
F1941       F  0.15879851  0.94456192  0.72383737    -0.20350
F1942       F  0.11373423  0.54580353  0.81053590    -0.20400
F1943       F  0.07420740  0.50247163  0.79076272    -0.20720
F1944       F  0.09953025  0.04425057  0.75836813    -0.23390
C1945       C  0.12243886  0.55190840  0.64129029    -0.06230
C1946       C  0.09755337  0.52613559  0.62625502    -0.00300
C1947       C  0.07210160  0.52941125  0.61696734    -0.08880
C1948       C  0.07261913  0.55763045  0.62346719    -0.06250
C1949       C  0.09717512  0.58267640  0.63926126    -0.00320
C1950       C  0.12294941  0.57999976  0.64764189    -0.08780
C1951       C  0.15127282  0.60654998  0.66303559     0.61590
H1952       H  0.14176765  0.54982792  0.64877991     0.12290
H1953       H  0.05335845  0.56025206  0.61689821     0.12300
C1954       C  0.04310926  0.50277321  0.60335956     0.61830
F1955       F  0.17368782  0.59906494  0.66887577    -0.23340
F1956       F  0.14393244  0.61420456  0.69289617    -0.20670
F1957       F  0.16323377  0.63162747  0.64199292    -0.20350
F1958       F  0.03007192  0.98148688  0.62828554    -0.20400
F1959       F  0.04898008  0.98972467  0.57627960    -0.20720
F1960       F  0.02249174  0.51170839  0.59356055    -0.23390
C1961       C  0.11669451  0.83011426  0.61642114    -0.06230
C1962       C  0.08883674  0.82894973  0.62010691    -0.00300
C1963       C  0.06211865  0.79964301  0.62527125    -0.08880
C1964       C  0.06457035  0.77286252  0.62718184    -0.06250
C1965       C  0.09214925  0.77385488  0.62252860    -0.00320
C1966       C  0.11873443  0.80290057  0.61722535    -0.08780
C1967       C  0.14873800  0.80499851  0.61092887     0.61590
H1968       H  0.13674482  0.85249402  0.61195677     0.12290
H1969       H  0.04447576  0.75038493  0.63102504     0.12300
C1970       C  0.03080945  0.79582566  0.62789539     0.61830
F1971       F  0.17247611  0.83547353  0.61123512    -0.23340
F1972       F  0.14714753  0.79229308  0.58021988    -0.20670
F1973       F  0.15454110  0.78886707  0.63488753    -0.20350
F1974       F  0.02472398  0.80819811  0.60052492    -0.20400
F1975       F  0.02955384  0.81039449  0.65617067    -0.20720
F1976       F  0.00809735  0.76491784  0.62966340    -0.23390
C1977       C  0.23494103  0.92303962  0.63352813    -0.06230
C1978       C  0.24999176  0.92705045  0.60334400    -0.00300
C1979       C  0.23514864  0.92905837  0.57440733    -0.08880
C1980       C  0.20710268  0.92891887  0.57731403    -0.06250
C1981       C  0.19326477  0.92721083  0.60806706    -0.00320
C1982       C  0.20749754  0.92339075  0.63662285    -0.08780
C1983       C  0.19525764  0.92153299  0.67095863     0.61590
H1984       H  0.24559726  0.92062103  0.65559640     0.12290
H1985       H  0.19625748  0.93124906  0.55534316     0.12300
C1986       C  0.24900193  0.93204613  0.54072049     0.61830
F1987       F  0.21016789  0.91380147  0.69447234    -0.23340
F1988       F  0.16472888  0.89932063  0.67207930    -0.20670
F1989       F  0.19960838  0.95037275  0.67922069    -0.20350
F1990       F  0.25172193  0.90623425  0.53429190    -0.20400
F1991       F  0.27739933  0.95852756  0.53979555    -0.20720
F1992       F  0.23129882  0.93412486  0.51591432    -0.23390
C1993       C  0.47691156  0.92653269  0.60459273    -0.06230
C1994       C  0.48166695  0.90881826  0.62842192    -0.00300
C1995       C  0.45556016  0.88286448  0.64177476    -0.08880
C1996       C  0.42637849  0.87841822  0.63464480    -0.06250
C1997       C  0.42204210  0.89821042  0.61345990    -0.00320
C1998       C  0.44765022  0.92167602  0.59689932    -0.08780
C1999       C  0.44370861  0.94077987  0.57042337     0.61590
H2000       H  0.99613008  0.94370407  0.59114273     0.12290
H2001       H  0.40666928  0.86027590  0.64701768     0.12300
C2002       C  0.45849280  0.85951954  0.66286953     0.61830
F2003       F  0.47114792  0.96234848  0.55679199    -0.23340
F2004       F  0.43001318  0.95653480  0.58300444    -0.20670
F2005       F  0.42562741  0.92089640  0.54570082    -0.20350
F2006       F  0.47794082  0.87465579  0.68905063    -0.20400
F2007       F  0.46982870  0.84464413  0.64389810    -0.20720
F2008       F  0.43080811  0.83702186  0.67520340    -0.23390
C2009       C  0.02572660  0.67190555  0.98013137    -0.06230
C2010       C  0.49400195  0.65262488  0.97856921    -0.00300
C2011       C  0.47731950  0.64670655  0.50821184    -0.08880
C2012       C  0.99311423  0.65970471  0.53814598    -0.06250
C2013       C  0.02490871  0.67454284  0.54014776    -0.00320
C2014       C  0.04155252  0.68266227  0.51026403    -0.08780
C2015       C  0.07595967  0.70301209  0.00966705     0.61590
H2016       H  0.03848024  0.67702903  0.95750198     0.12290
H2017       H  0.48056814  0.65636673  0.56053852     0.12300
C2018       C  0.44345010  0.62464942  0.50909146     0.61830
F2019       F  0.08616573  0.71520576  0.97865398    -0.23340
F2020       F  0.08940104  0.68578767  0.51827248    -0.20670
F2021       F  0.08529955  0.72776858  0.53128747    -0.20350
F2022       F  0.43808579  0.59495303  0.50323647    -0.20400
F2023       F  0.42892574  0.63243142  0.98539263    -0.20720
F2024       F  0.43123773  0.62499146  0.53935784    -0.23390
C2025       C  0.02787706  0.68008644  0.79294640    -0.06230
C2026       C  0.49604247  0.66156772  0.79183391    -0.00300
C2027       C  0.48141855  0.65853118  0.76063596    -0.08880
C2028       C  0.49871509  0.66637478  0.73158646    -0.06250
C2029       C  0.03037236  0.68097742  0.73243072    -0.00320
C2030       C  0.04511691  0.69213293  0.76372715    -0.08780
C2031       C  0.07728483  0.71987233  0.76641690     0.61590
H2032       H  0.03920543  0.68525462  0.81674191     0.12290
H2033       H  0.48730542  0.66143569  0.70784669     0.12300
C2034       C  0.44965783  0.65375199  0.75671037     0.61830
F2035       F  0.08433889  0.73094925  0.79849359    -0.23340
F2036       F  0.07942483  0.74366520  0.74691472    -0.20670
F2037       F  0.09887981  0.71271327  0.75644568    -0.20350
F2038       F  0.45208464  0.68254683  0.75280066    -0.20400
F2039       F  0.43127686  0.63949258  0.78322176    -0.20720
F2040       F  0.43560368  0.63616227  0.72881133    -0.23390
C2041       C  0.37900514  0.53948012  0.50573008    -0.06230
C2042       C  0.38404900  0.52607127  0.97794349    -0.00300
C2043       C  0.37765236  0.99486631  0.97947195    -0.08880
C2044       C  0.37013090  0.97958972  0.00973449    -0.06250
C2045       C  0.36724070  0.99360924  0.53843123    -0.00320
C2046       C  0.37098015  0.52401130  0.53623878    -0.08780
C2047       C  0.36735334  0.54067894  0.56564448     0.61590
H2048       H  0.38193863  0.56251939  0.50342801     0.12290
H2049       H  0.36561983  0.95590923  0.01083093     0.12300
C2050       C  0.37570973  0.97657934  0.94881382     0.61830
F2051       F  0.37574523  0.57119738  0.55867858    -0.23340
F2052       F  0.38564192  0.54120417  0.59105201    -0.20670
F2053       F  0.33738831  0.52558246  0.57553958    -0.20350
F2054       F  0.40413000  0.98831530  0.93517370    -0.20400
F2055       F  0.35591449  0.97858159  0.92686370    -0.20720
F2056       F  0.36458409  0.94533211  0.95510403    -0.23390
C2057       C  0.35837335  0.51311327  0.72897542    -0.06230
C2058       C  0.34830987  0.98185650  0.73492384    -0.00300
C2059       C  0.34265962  0.97012276  0.76727670    -0.08880
C2060       C  0.34966263  0.49118629  0.79352364    -0.06250
C2061       C  0.36297748  0.52317016  0.78757266    -0.00320
C2062       C  0.36631635  0.53427870  0.75486688    -0.08780
C2063       C  0.38168749  0.56858543  0.74689762     0.61590
H2064       H  0.36263136  0.52133278  0.70376555     0.12290
H2065       H  0.34693789  0.98319308  0.81874913     0.12300
C2066       C  0.32974167  0.93580641  0.77363016     0.61830
F2067       F  0.37646735  0.57357420  0.71454452    -0.23340
F2068       F  0.41261283  0.58127789  0.75142369    -0.20670
F2069       F  0.37107447  0.58345723  0.76708279    -0.20350
F2070       F  0.34943573  0.92644331  0.76214814    -0.20400
F2071       F  0.30211049  0.91927355  0.75739729    -0.20720
F2072       F  0.32510125  0.92897737  0.80685517    -0.23390
C2073       C  0.04686039  0.61061715  0.88229450    -0.06230
C2074       C  0.02534233  0.59268643  0.90581313    -0.00300
C2075       C  0.03302764  0.57737213  0.93062343    -0.08880
C2076       C  0.06140270  0.57934929  0.92910731    -0.06250
C2077       C  0.08272979  0.59656387  0.90481067    -0.00320
C2078       C  0.07559818  0.61329564  0.88178317    -0.08780
C2079       C  0.09778228  0.63340475  0.85628073     0.61770
H2080       H  0.04092650  0.62260706  0.86409069     0.12290
H2081       H  0.06710217  0.56718952  0.94728372     0.12300
C2082       C  0.01220996  0.55928828  0.95912237     0.61830
F2083       F  0.08604001  0.64740596  0.83636272    -0.23340
F2084       F  0.10471430  0.61491880  0.83695440    -0.20670
F2085       F  0.12366992  0.65676103  0.87153238    -0.20350
F2086       F  0.98640094  0.53321999  0.94724521    -0.20400
F2087       F  0.00430779  0.57818763  0.97641129    -0.20720
F2088       F  0.02600542  0.54904902  0.98134780    -0.23390
C2089       C  0.32046137  0.59888527  0.83126169    -0.06230
C2090       C  0.33243543  0.59991600  0.86313808    -0.00300
C2091       C  0.31645139  0.60180934  0.89116956    -0.08880
C2092       C  0.29027873  0.60352531  0.88526917    -0.06250
C2093       C  0.27697822  0.59949191  0.85388578    -0.00320
C2094       C  0.29228560  0.59712311  0.82616069    -0.08780
C2095       C  0.27832590  0.59071536  0.79177313     0.61590
H2096       H  0.33225315  0.59706400  0.81005660     0.12290
H2097       H  0.27866585  0.60594295  0.90641448     0.12300
C2098       C  0.32293505  0.60078794  0.92807682     0.61830
F2099       F  0.29652609  0.58751323  0.76873514    -0.23340
F2100       F  0.27427418  0.61503407  0.78200399    -0.20670
F2101       F  0.25058765  0.56331662  0.79170641    -0.20350
F2102       F  0.32419691  0.62623308  0.94368381    -0.20400
F2103       F  0.34926497  0.60101951  0.93638627    -0.20720
F2104       F  0.29908990  0.57412738  0.94130995    -0.23390
C2105       C  0.49586439  0.87433340  0.99032394    -0.06230
C2106       C  0.49837686  0.85385463  0.96847739    -0.00300
C2107       C  0.01407674  0.83848418  0.97906346    -0.08880
C2108       C  0.02718878  0.84499123  0.01121177    -0.06250
C2109       C  0.02323366  0.86467363  0.53314601    -0.00320
C2110       C  0.00628331  0.87845037  0.52266552    -0.08780
C2111       C  0.99753840  0.89597438  0.54631321     0.61590
H2112       H  0.48431386  0.88648857  0.98224879     0.12290
H2113       H  0.04109606  0.83535227  0.01917928     0.12300
C2114       C  0.01687993  0.81555343  0.95685363     0.61830
F2115       F  0.97831592  0.90494449  0.53211321    -0.23340
F2116       F  0.02318926  0.92245573  0.55755285    -0.20670
F2117       F  0.98231905  0.87631761  0.57209434    -0.20350
F2118       F  0.03253249  0.83051555  0.92873410    -0.20400
F2119       F  0.48826365  0.79156902  0.94816892    -0.20720
F2120       F  0.03238422  0.80274793  0.97224064    -0.23390
C2121       C  0.49694214  0.83351562  0.72101486    -0.06230
C2122       C  0.02569752  0.86027411  0.71794196    -0.00300
C2123       C  0.04196966  0.87503907  0.74746857    -0.08880
C2124       C  0.02717543  0.86587189  0.77785609    -0.06250
C2125       C  0.49680313  0.84253010  0.78029609    -0.00320
C2126       C  0.48181367  0.82446823  0.75156128    -0.08780
C2127       C  0.45094359  0.79485306  0.75104570     0.61590
H2128       H  0.48514859  0.82064224  0.69895957     0.12290
H2129       H  0.03861713  0.87922988  0.79982514     0.12300
C2130       C  0.07317374  0.90347489  0.74761855     0.61830
F2131       F  0.43290362  0.79657035  0.72645190    -0.23340
F2132       F  0.43537963  0.78879930  0.78025829    -0.20670
F2133       F  0.45511267  0.76999666  0.74406767    -0.20350
F2134       F  0.06965348  0.92856617  0.74046276    -0.20400
F2135       F  0.09184188  0.90039207  0.72520428    -0.20720
F2136       F  0.08726039  0.90866122  0.77800477    -0.23390
C2137       C  0.43373741  0.96030040  0.84247603    -0.06230
C2138       C  0.40964821  0.93281837  0.85535630    -0.00300
C2139       C  0.38331755  0.93366087  0.86533542    -0.08880
C2140       C  0.38445132  0.96269399  0.86682387    -0.06250
C2141       C  0.41095367  0.99107705  0.85968133    -0.00320
C2142       C  0.43533350  0.98945602  0.84477800    -0.08780
C2143       C  0.46285385  0.51790041  0.83075210     0.61590
H2144       H  0.45169505  0.95882628  0.83071073     0.12290
H2145       H  0.36450235  0.96334975  0.87429856     0.12300
C2146       C  0.35346400  0.90418501  0.87239633     0.61830
F2147       F  0.48014319  0.50986809  0.81133113    -0.23340
F2148       F  0.48121444  0.53664981  0.85613923    -0.20670
F2149       F  0.45359406  0.53442693  0.81116996    -0.20350
F2150       F  0.35589839  0.89034575  0.90077825    -0.20400
F2151       F  0.34577629  0.88369902  0.84618139    -0.20720
F2152       F  0.32987855  0.91012875  0.87670323    -0.23390
C2153       C  0.45583928  0.71804016  0.85860107    -0.06230
C2154       C  0.43699602  0.69402074  0.87987713    -0.00300
C2155       C  0.42222054  0.70061449  0.90538020    -0.08880
C2156       C  0.42530678  0.73026636  0.90742193    -0.06250
C2157       C  0.44054902  0.75296706  0.88335022    -0.00320
C2158       C  0.45903302  0.74786415  0.86089714    -0.08780
C2159       C  0.48437003  0.77404763  0.84212067     0.61590
H2160       H  0.46862219  0.71341854  0.84044820     0.12290
H2161       H  0.41486973  0.73550837  0.92754680     0.12300
C2162       C  0.40051119  0.67544413  0.92791199     0.61830
F2163       F  0.00446448  0.76571688  0.82931500    -0.23340
F2164       F  0.50071182  0.79923873  0.86290788    -0.20670
F2165       F  0.47223267  0.78202849  0.81633925    -0.20350
F2166       F  0.41579020  0.66501229  0.94734176    -0.20400
F2167       F  0.37954458  0.65170098  0.90830372    -0.20720
F2168       F  0.38526536  0.68520438  0.94844044    -0.23390
C2169       C  0.05708461  0.93504723  0.86501000    -0.06230
C2170       C  0.03102151  0.93779876  0.86342474    -0.00300
C2171       C  0.03465167  0.96786443  0.86331868    -0.08880
C2172       C  0.06392776  0.99406961  0.86673677    -0.06250
C2173       C  0.09039885  0.99171432  0.86769698    -0.00320
C2174       C  0.08674186  0.96123985  0.86480450    -0.08780
C2175       C  0.11211209  0.95393003  0.85965796     0.61590
H2176       H  0.05420395  0.91188703  0.86427117     0.12290
H2177       H  0.06621490  0.51690350  0.86803880     0.12300
C2178       C  0.00785022  0.97228355  0.85771194     0.61830
F2179       F  0.10385382  0.93211335  0.83481616    -0.23340
F2180       F  0.11634573  0.94117451  0.88793421    -0.20670
F2181       F  0.13925837  0.97910786  0.85036003    -0.20350
F2182       F  0.48480303  0.95413245  0.87933692    -0.20400
F2183       F  0.49821514  0.96355273  0.82554065    -0.20720
F2184       F  0.01521746  0.00293487  0.86207191    -0.23390
C2185       C  0.29825992  0.69000434  0.88081992    -0.06230
C2186       C  0.27259886  0.69255173  0.87431261    -0.00300
C2187       C  0.27619638  0.72273924  0.87111299    -0.08880
C2188       C  0.30567825  0.74921384  0.87332565    -0.06250
C2189       C  0.33144804  0.74668412  0.87995949    -0.00320
C2190       C  0.32744273  0.71655020  0.88423634    -0.08780
C2191       C  0.35400907  0.71263538  0.89264123     0.61590
H2192       H  0.29515490  0.66691939  0.88360209     0.12290
H2193       H  0.30881365  0.77231497  0.87053014     0.12300
C2194       C  0.24908360  0.72717872  0.86596901     0.61830
F2195       F  0.34597810  0.68166025  0.89487279    -0.23340
F2196       F  0.36560816  0.72682680  0.92274227    -0.20670
F2197       F  0.37557173  0.72628762  0.86835976    -0.20350
F2198       F  0.22842715  0.71272971  0.89090942    -0.20400
F2199       F  0.23534727  0.71457190  0.83607483    -0.20720
F2200       F  0.25733694  0.75830706  0.86605781    -0.23390
C2201       C  0.37128930  0.89490309  0.50274671    -0.06230
C2202       C  0.34506976  0.87265544  0.51851355    -0.00300
C2203       C  0.32829199  0.84224264  0.50475729    -0.08880
C2204       C  0.33854675  0.83534114  0.97540813    -0.06250
C2205       C  0.36587418  0.85712899  0.96075404    -0.00320
C2206       C  0.38294917  0.88747546  0.97504087    -0.08780
C2207       C  0.41379665  0.91198449  0.96210536     0.61590
H2208       H  0.38324708  0.91809731  0.51325355     0.12290
H2209       H  0.32626710  0.81217166  0.96477864     0.12300
C2210       C  0.30028128  0.81687336  0.52138240     0.61830
F2211       F  0.42454130  0.94043649  0.97779797    -0.23340
F2212       F  0.41175614  0.91660325  0.92900434    -0.20670
F2213       F  0.43494087  0.90269353  0.96713876    -0.20350
F2214       F  0.27788354  0.82467266  0.52119184    -0.20400
F2215       F  0.30723539  0.81337678  0.55347508    -0.20720
F2216       F  0.28892281  0.78844734  0.50545797    -0.23390
C2217       C  0.37700791  0.86181347  0.71993794    -0.06230
C2218       C  0.34839092  0.85847771  0.71610183    -0.00300
C2219       C  0.32688192  0.84551165  0.74147467    -0.08880
C2220       C  0.33565683  0.83777140  0.77133313    -0.06250
C2221       C  0.36536474  0.84318650  0.77631837    -0.00320
C2222       C  0.38642173  0.85514488  0.74971342    -0.08780
C2223       C  0.41926871  0.86276120  0.75224543     0.61590
H2224       H  0.39288441  0.87225499  0.69992849     0.12290
H2225       H  0.31956646  0.82824322  0.79128159     0.12300
C2226       C  0.29489872  0.83968293  0.73653352     0.61830
F2227       F  0.43536481  0.87639075  0.72398253    -0.23340
F2228       F  0.42018525  0.83585317  0.75745429    -0.20670
F2229       F  0.43409650  0.88372609  0.77738206    -0.20350
F2230       F  0.28147726  0.81969704  0.71008134    -0.20400
F2231       F  0.29557644  0.86728200  0.73009323    -0.20720
F2232       F  0.27710731  0.82640241  0.76400167    -0.23390
O2233       O  0.92949890  0.40095231  0.33544138    -0.80590
O2234       O  0.95657596  0.35002115  0.44038684    -0.80610
O2235       O  0.86480692  0.33334391  0.40777679    -0.80620
O2236       O  0.99341154  0.38783152  0.38195679    -0.80560
O2237       O  0.90369012  0.34780495  0.44117728    -0.80680
O2238       O  0.98317703  0.40297325  0.33668351    -0.80600
O2239       O  0.98443153  0.33764941  0.41075568    -0.80590
O2240       O  0.89793899  0.38202630  0.37494847    -0.80630
C2241       C  0.91232246  0.40383796  0.35534800     1.09100
C2242       C  0.97929943  0.34650495  0.43816693     1.08990
C2243       C  0.87860649  0.34584115  0.43487327     1.09120
C2244       C  0.00079283  0.40859993  0.36093890     1.09000
O2245       O  0.95524012  0.33890411  0.31183697    -0.80590
O2246       O  0.87386424  0.28599162  0.41147229    -0.80670
O2247       O  0.85835701  0.33570682  0.33529422    -0.80600
O2248       O  0.94217443  0.29863933  0.35970007    -0.80580
O2249       O  0.93024330  0.28915221  0.41137629    -0.80630
O2250       O  0.89768445  0.33533831  0.31384687    -0.80600
O2251       O  0.99604603  0.34642709  0.33944535    -0.80560
O2252       O  0.87334018  0.29356367  0.35887957    -0.80630
Co2253     Co  0.94018101  0.36725619  0.33014922     1.51530
Co2254     Co  0.91693803  0.32015068  0.42282184     1.51690
Co2255     Co  0.88883695  0.33889192  0.36591292     1.51570
Co2256     Co  0.96579889  0.34411483  0.36904538     1.51470
O2257       O  0.92988279  0.34775442  0.38095819    -1.42520
C2258       C  0.98202281  0.34218460  0.31198242     1.09030
C2259       C  0.86164692  0.27616816  0.38336736     1.09120
C2260       C  0.87416506  0.33827066  0.30985193     1.09060
C2261       C  0.93736986  0.28153210  0.38443537     1.09030
O2262       O  0.95769214  0.11612543  0.31778480    -0.80590
O2263       O  0.93735117  0.04671276  0.36919276    -0.80610
O2264       O  0.49008503  0.10839047  0.38436900    -0.80620
O2265       O  0.86164803  0.04215470  0.34087586    -0.80560
O2266       O  0.97485533  0.07256114  0.42231516    -0.80680
O2267       O  0.90369442  0.06614882  0.31291543    -0.80600
O2268       O  0.88889857  0.02046506  0.38173260    -0.80590
O2269       O  0.98292988  0.15468696  0.35098127    -0.80630
C2270       C  0.97871932  0.14357648  0.32180123     1.09100
C2271       C  0.91237964  0.02114815  0.36963397     1.08990
C2272       C  0.49571351  0.09138591  0.40431153     1.09120
C2273       C  0.87669063  0.04472951  0.31530599     1.09000
O2274       O  0.87497678  0.09990989  0.33871965    -0.80590
O2275       O  0.95659592  0.11180467  0.44163119    -0.80670
O2276       O  0.93956305  0.15008771  0.39939146    -0.80600
O2277       O  0.88518086  0.05988971  0.43527330    -0.80580
O2278       O  0.91897563  0.04618548  0.43396765    -0.80630
O2279       O  0.93078629  0.15145734  0.34644559    -0.80600
O2280       O  0.86381656  0.08394575  0.38986151    -0.80560
O2281       O  0.99294668  0.15540944  0.41982623    -0.80630
Co2282     Co  0.91721205  0.10725414  0.33128546     1.51530
Co2283     Co  0.94581922  0.07930603  0.40271581     1.51690
Co2284     Co  0.96138695  0.12719873  0.39146621     1.51570
Co2285     Co  0.87805449  0.05451769  0.38688083     1.51470
O2286       O  0.92075022  0.09102127  0.37557515    -1.42520
C2287       C  0.85913883  0.09541504  0.36454409     1.09030
C2288       C  0.98035944  0.13944870  0.44537975     1.09120
C2289       C  0.93470565  0.16312632  0.37530229     1.09060
C2290       C  0.89668677  0.04518150  0.44799818     1.09030
O2291       O  0.52571461  0.40299218  0.11913570    -0.80590
O2292       O  0.65667086  0.48367976  0.09166562    -0.80610
O2293       O  0.57569065  0.47074637  0.11606723    -0.80620
O2294       O  0.56526235  0.40525383  0.05939601    -0.80560
O2295       O  0.62274593  0.49634388  0.13508978    -0.80680
O2296       O  0.54002593  0.36418848  0.08929135    -0.80600
O2297       O  0.61760698  0.45737000  0.05870809    -0.80590
O2298       O  0.52958306  0.43432039  0.15921961    -0.80630
C2299       C  0.51353022  0.41561234  0.13635998     1.09100
C2300       C  0.64347759  0.48055394  0.06421643     1.08990
C2301       C  0.59888401  0.49632183  0.12426965     1.09120
C2302       C  0.54359069  0.37807005  0.06210169     1.09000
O2303       O  0.58146153  0.36937333  0.14085558    -0.80590
O2304       O  0.62557616  0.45197724  0.18088196    -0.80670
O2305       O  0.55727089  0.40251254  0.18131605    -0.80600
O2306       O  0.64934283  0.42624260  0.08291679    -0.80580
O2307       O  0.65730934  0.43863979  0.13536781    -0.80630
O2308       O  0.52515280  0.35812098  0.15795894    -0.80600
O2309       O  0.59401566  0.37175365  0.08837037    -0.80560
O2310       O  0.59081459  0.46477563  0.18220327    -0.80630
Co2311     Co  0.55724002  0.38924399  0.13163589     1.51530
Co2312     Co  0.63777307  0.46493628  0.13531918     1.51690
Co2313     Co  0.56649909  0.43533984  0.14498038     1.51570
Co2314     Co  0.60562880  0.41589041  0.07492425     1.51470
O2315       O  0.59691156  0.42851615  0.11923345    -1.42520
C2316       C  0.58843927  0.35840951  0.11647706     1.09030
C2317       C  0.61371740  0.46532259  0.19569799     1.09120
C2318       C  0.53639919  0.37384277  0.18423156     1.09060
C2319       C  0.66489492  0.43038233  0.10913675     1.09030
O2320       O  0.68652915  0.15858284  0.35203052    -0.80590
O2321       O  0.64340760  0.02116063  0.38432738    -0.80610
O2322       O  0.66925422  0.06923055  0.30737404    -0.80620
O2323       O  0.61343282  0.07664740  0.42401804    -0.80560
O2324       O  0.68295079  0.03997574  0.33396048    -0.80680
O2325       O  0.63431957  0.11264451  0.38589879    -0.80600
O2326       O  0.62094484  0.04740484  0.37208759    -0.80590
O2327       O  0.66935163  0.11955567  0.31913077    -0.80630
C2328       C  0.67807308  0.14753094  0.32316329     1.09100
C2329       C  0.61998579  0.02147382  0.37401205     1.08990
C2330       C  0.66753794  0.04351680  0.31119780     1.09120
C2331       C  0.61157796  0.09569897  0.40507250     1.09000
O2332       O  0.68005517  0.15869009  0.42162149    -0.80590
O2333       O  0.73078354  0.08309782  0.37954560    -0.80670
O2334       O  0.73326804  0.15090231  0.34263574    -0.80600
O2335       O  0.64630683  0.05053315  0.43579491    -0.80580
O2336       O  0.69330981  0.06341606  0.42953303    -0.80630
O2337       O  0.72619700  0.15164586  0.39632310    -0.80600
O2338       O  0.67213150  0.11332743  0.43992549    -0.80560
O2339       O  0.73255810  0.09655348  0.32800118    -0.80630
Co2340     Co  0.68142820  0.12998768  0.39113664     1.51530
Co2341     Co  0.68774718  0.05464383  0.38161408     1.51690
Co2342     Co  0.69978894  0.10802442  0.32693351     1.51570
Co2343     Co  0.64774467  0.08119355  0.40278414     1.51470
O2344       O  0.68246274  0.09216634  0.37260096    -1.42520
C2345       C  0.67500747  0.14029571  0.44555351     1.09030
C2346       C  0.74531515  0.09324647  0.35337654     1.09120
C2347       C  0.74257749  0.16332348  0.37108288     1.09060
C2348       C  0.66985525  0.05122505  0.44676675     1.09030
O2349       O  0.53962872  0.12363448  0.17394527    -0.80590
O2350       O  0.61615573  0.16635208  0.07228465    -0.80610
O2351       O  0.53001624  0.18247329  0.09987765    -0.80620
O2352       O  0.60033041  0.12933999  0.12017033    -0.80560
O2353       O  0.56215828  0.17213826  0.07430790    -0.80680
O2354       O  0.59247959  0.12059018  0.17232879    -0.80600
O2355       O  0.65662397  0.17127866  0.09933092    -0.80590
O2356       O  0.53599567  0.13347977  0.12212976    -0.80630
C2357       C  0.52549497  0.11563853  0.14659096     1.09100
C2358       C  0.64125985  0.16563964  0.07257445     1.08990
C2359       C  0.54017844  0.17798186  0.07286688     1.09120
C2360       C  0.59591523  0.11182479  0.14411896     1.09000
O2361       O  0.62401830  0.18416035  0.20117198    -0.80590
O2362       O  0.60164486  0.23601910  0.09767855    -0.80670
O2363       O  0.53400100  0.17371966  0.17304966    -0.80600
O2364       O  0.65923777  0.21641921  0.14153538    -0.80580
O2365       O  0.65007298  0.22912447  0.09458579    -0.80630
O2366       O  0.57299527  0.18518153  0.20430784    -0.80600
O2367       O  0.64612212  0.16551320  0.17149586    -0.80560
O2368       O  0.57546577  0.22320175  0.14224887    -0.80630
Co2369     Co  0.58316224  0.15522062  0.18491258     1.51530
Co2370     Co  0.60594122  0.19845466  0.09095213     1.51690
Co2371     Co  0.55777047  0.17917661  0.13059881     1.51570
Co2372     Co  0.62889080  0.17394383  0.12939643     1.51470
O2373       O  0.59623845  0.18124195  0.14262733    -1.42520
C2374       C  0.64200365  0.17411400  0.19964432     1.09030
C2375       C  0.59080877  0.24340339  0.12142711     1.09120
C2376       C  0.54674104  0.18118119  0.20149949     1.09060
C2377       C  0.66795006  0.23513879  0.11847737     1.09030
O2378       O  0.89778547  0.41556141  0.14775771    -0.80590
O2379       O  0.85945453  0.44944786  0.06911075    -0.80610
O2380       O  0.85076751  0.38544676  0.07713830    -0.80620
O2381       O  0.88395092  0.49935879  0.14831380    -0.80560
O2382       O  0.81679854  0.39104459  0.04831644    -0.80680
O2383       O  0.90922950  0.47413837  0.14404228    -0.80600
O2384       O  0.84636911  0.48071076  0.09277831    -0.80590
O2385       O  0.87143778  0.39199794  0.10272754    -0.80630
C2386       C  0.89552579  0.40215903  0.12072963     1.09100
C2387       C  0.85809423  0.47421116  0.06878340     1.08990
C2388       C  0.83648634  0.38249893  0.04927700     1.09120
C2389       C  0.90923206  0.49933076  0.14604321     1.09000
O2390       O  0.87359748  0.46520892  0.20004184    -0.80590
O2391       O  0.78856311  0.37364664  0.10888143    -0.80670
O2392       O  0.84419829  0.36776038  0.15950050    -0.80600
O2393       O  0.79479744  0.43813474  0.13294960    -0.80580
O2394       O  0.79552231  0.42672732  0.08161901    -0.80630
O2395       O  0.85095345  0.40319954  0.19550464    -0.80600
O2396       O  0.82831070  0.45449633  0.18584465    -0.80560
O2397       O  0.80802821  0.34308934  0.11145851    -0.80630
Co2398     Co  0.88018751  0.43848718  0.16877805     1.51530
Co2399     Co  0.82652714  0.41244485  0.09023039     1.51690
Co2400     Co  0.83189898  0.38587421  0.12271910     1.51570
Co2401     Co  0.83880451  0.46599455  0.13961816     1.51470
O2402       O  0.84803674  0.43108784  0.13371371    -1.42520
C2403       C  0.84915889  0.46432163  0.20672616     1.09030
C2404       C  0.78486405  0.34614632  0.11063545     1.09120
C2405       C  0.84563378  0.37623427  0.18908179     1.09060
C2406       C  0.78159867  0.43081484  0.10534197     1.09030
C2407       C  0.94049177  0.05667990  0.13948215    -0.06230
C2408       C  0.93950297  0.02880898  0.14722128    -0.00300
C2409       C  0.96743173  0.02996865  0.15607673    -0.08880
C2410       C  0.99485147  0.05876174  0.15507236    -0.06250
C2411       C  0.99577032  0.08600711  0.14471079    -0.00320
C2412       C  0.96806246  0.08485004  0.13654598    -0.08780
C2413       C  0.96757028  0.11275160  0.12299652     0.61590
H2414       H  0.91939396  0.05625249  0.13521837     0.12290
H2415       H  0.51614429  0.06026548  0.16201032     0.12300
C2416       C  0.96891897  0.00167102  0.16784892     0.61830
F2417       F  0.93842700  0.10687014  0.11625212    -0.23340
F2418       F  0.98337124  0.12044248  0.09398369    -0.20670
F2419       F  0.98094162  0.13728966  0.14500085    -0.20350
F2420       F  0.96230662  0.48099777  0.14204565    -0.20400
F2421       F  0.94856260  0.48728259  0.19315973    -0.20720
F2422       F  0.49751100  0.00959325  0.17973802    -0.23390
C2423       C  0.70331102  0.28554776  0.09413216    -0.06230
C2424       C  0.69854500  0.26312726  0.11790080    -0.00300
C2425       C  0.72306906  0.26781087  0.13876661    -0.08880
C2426       C  0.75109985  0.29527406  0.13505539    -0.06250
C2427       C  0.75459947  0.31864555  0.11321148    -0.00320
C2428       C  0.72998897  0.31430099  0.09317623    -0.08780
C2429       C  0.73095507  0.33995751  0.07204889     0.61590
H2430       H  0.68557350  0.28072759  0.07650476     0.12290
H2431       H  0.77052965  0.29908605  0.14973736     0.12300
C2432       C  0.72045148  0.24402231  0.16399391     0.61830
F2433       F  0.70520520  0.32956177  0.05251392    -0.23340
F2434       F  0.75563906  0.35230843  0.05152468    -0.20670
F2435       F  0.73287666  0.36307806  0.09247510    -0.20350
F2436       F  0.71090810  0.21565690  0.14866778    -0.20400
F2437       F  0.69999587  0.24080887  0.18806787    -0.20720
F2438       F  0.74795251  0.25281308  0.17950186    -0.23390
C2439       C  0.65021898  0.16603448  0.29094226    -0.06230
C2440       C  0.67678014  0.16480990  0.29388334    -0.00300
C2441       C  0.69346348  0.16781769  0.26450074    -0.08880
C2442       C  0.68273997  0.17273608  0.23400121    -0.06250
C2443       C  0.65363499  0.16906826  0.23137431    -0.00320
C2444       C  0.63585828  0.16175415  0.26037138    -0.08780
C2445       C  0.60123155  0.14401756  0.26095103     0.61590
H2446       H  0.63770020  0.16404568  0.31283718     0.12290
H2447       H  0.69598012  0.17738442  0.21178844     0.12300
C2448       C  0.72180054  0.16497466  0.26488778     0.61830
F2449       F  0.59122968  0.11690435  0.27848728    -0.23340
F2450       F  0.58776225  0.13472663  0.23064989    -0.20670
F2451       F  0.59076885  0.16170126  0.27580276    -0.20350
F2452       F  0.71460133  0.13541423  0.27441761    -0.20400
F2453       F  0.74308997  0.18652310  0.28643279    -0.20720
F2454       F  0.73495848  0.17018813  0.23408775    -0.23390
C2455       C  0.64017915  0.12629377  0.49179907    -0.06230
C2456       C  0.66878322  0.14728306  0.47911942    -0.00300
C2457       C  0.68949514  0.17307344  0.49848383    -0.08880
C2458       C  0.68029110  0.17733633  0.02994105    -0.06250
C2459       C  0.65092269  0.15702610  0.04183351    -0.00320
C2460       C  0.63056416  0.13081227  0.02252399    -0.08780
C2461       C  0.59898821  0.10712960  0.03426919     0.61590
H2462       H  0.62479629  0.10653649  0.47682758     0.12290
H2463       H  0.69551185  0.19733920  0.04489501     0.12300
C2464       C  0.72100652  0.19563306  0.48603298     0.61830
F2465       F  0.58507914  0.08127940  0.01377927    -0.23340
F2466       F  0.58057738  0.12017678  0.03520115    -0.20670
F2467       F  0.60110827  0.09701200  0.06523282    -0.20350
F2468       F  0.71883535  0.21102525  0.45877409    -0.20400
F2469       F  0.73563543  0.17956958  0.47738725    -0.20720
F2470       F  0.73851579  0.21764228  0.00969731    -0.23390
C2471       C  0.65391074  0.48651032  0.50577817    -0.06230
C2472       C  0.65845824  0.50150827  0.03618161    -0.00300
C2473       C  0.67250624  0.03438334  0.03733435    -0.08880
C2474       C  0.67720508  0.05055386  0.00736732    -0.06250
C2475       C  0.66877452  0.03454651  0.47711070    -0.00320
C2476       C  0.65844560  0.50232626  0.47620740    -0.08780
C2477       C  0.64902652  0.48379650  0.44451441     0.61590
H2478       H  0.64431301  0.46148642  0.50542041     0.12290
H2479       H  0.68622917  0.07547378  0.00739975     0.12300
C2480       C  0.68140517  0.05196913  0.06968380     0.61830
F2481       F  0.64324087  0.45367612  0.44894290    -0.23340
F2482       F  0.67178532  0.49773555  0.42142673    -0.20670
F2483       F  0.62266370  0.48229965  0.43324234    -0.20350
F2484       F  0.70126200  0.04557525  0.08670292    -0.20400
F2485       F  0.65579501  0.04294247  0.08818014    -0.20720
F2486       F  0.69553128  0.08382415  0.06517613    -0.23390
C2487       C  0.66510526  0.00491568  0.27162603    -0.06230
C2488       C  0.65035184  0.01937941  0.28572387    -0.00300
C2489       C  0.62247443  0.01418151  0.27121778    -0.08880
C2490       C  0.61130365  0.49547111  0.24293721    -0.06250
C2491       C  0.62686473  0.48245061  0.22753922    -0.00320
C2492       C  0.65459872  0.98748820  0.24217921    -0.08780
C2493       C  0.67443313  0.97667987  0.22605438     0.61590
H2494       H  0.68642419  0.00945242  0.28259591     0.12290
H2495       H  0.59013293  0.49169835  0.23217410     0.12300
C2496       C  0.60268545  0.02704712  0.28323616     0.61830
F2497       F  0.70102112  0.98560981  0.24364704    -0.23340
F2498       F  0.68251445  0.98978696  0.19507985    -0.20670
F2499       F  0.65879879  0.44456183  0.22383726    -0.20350
F2500       F  0.61373420  0.04580305  0.31053598    -0.20400
F2501       F  0.57420739  0.00247121  0.29076268    -0.20720
F2502       F  0.59953025  0.54425020  0.25836827    -0.23390
C2503       C  0.62243879  0.05190817  0.14129017    -0.06230
C2504       C  0.59755328  0.02613530  0.12625500    -0.00300
C2505       C  0.57210143  0.02941086  0.11696747    -0.08880
C2506       C  0.57261890  0.05763003  0.12346734    -0.06250
C2507       C  0.59717490  0.08267601  0.13926135    -0.00320
C2508       C  0.62294928  0.07999947  0.14764183    -0.08780
C2509       C  0.65127270  0.10654973  0.16303545     0.61590
H2510       H  0.64176765  0.04982776  0.14877967     0.12290
H2511       H  0.55335815  0.06025157  0.11689848     0.12300
C2512       C  0.54310906  0.00277276  0.10335987     0.61830
F2513       F  0.67368776  0.09906478  0.16887553    -0.23340
F2514       F  0.64393236  0.11420428  0.19289608    -0.20670
F2515       F  0.66323354  0.13162721  0.14199278    -0.20350
F2516       F  0.53007181  0.48148652  0.12828590    -0.20400
F2517       F  0.54897979  0.48972429  0.07627987    -0.20720
F2518       F  0.52249143  0.01170784  0.09356099    -0.23390
C2519       C  0.61669407  0.33011375  0.11642034    -0.06230
C2520       C  0.58883644  0.32894939  0.12010665    -0.00300
C2521       C  0.56211838  0.29964278  0.12527160    -0.08880
C2522       C  0.56457000  0.27286223  0.12718227    -0.06250
C2523       C  0.59214878  0.27385441  0.12252857    -0.00320
C2524       C  0.61873391  0.30290000  0.11722469    -0.08780
C2525       C  0.64873736  0.30499779  0.11092783     0.61590
H2526       H  0.63674435  0.35249342  0.11195553     0.12290
H2527       H  0.54447543  0.25038473  0.13102594     0.12300
C2528       C  0.53080929  0.29582561  0.12789640     0.61830
F2529       F  0.67247551  0.33547280  0.11123356    -0.23340
F2530       F  0.64714649  0.29229197  0.08021896    -0.20670
F2531       F  0.65454074  0.28886664  0.13488659    -0.20350
F2532       F  0.52472349  0.30819811  0.10052619    -0.20400
F2533       F  0.52955421  0.31039454  0.15617186    -0.20720
F2534       F  0.50809713  0.26491784  0.12966460    -0.23390
C2535       C  0.73494064  0.42303902  0.13352764    -0.06230
C2536       C  0.74999134  0.42704978  0.10334350    -0.00300
C2537       C  0.73514826  0.42905773  0.07440683    -0.08880
C2538       C  0.70710236  0.42891836  0.07731352    -0.06250
C2539       C  0.69326453  0.42721046  0.10806657    -0.00320
C2540       C  0.70749728  0.42339039  0.13662238    -0.08780
C2541       C  0.69525756  0.42153295  0.17095820     0.61590
H2542       H  0.74559681  0.42062035  0.15559590     0.12290
H2543       H  0.69625717  0.43124854  0.05534265     0.12300
C2544       C  0.74900154  0.43204540  0.04071999     0.61830
F2545       F  0.71016787  0.41380156  0.19447196    -0.23340
F2546       F  0.66472879  0.39932068  0.17207909    -0.20670
F2547       F  0.69960844  0.45037282  0.17922001    -0.20350
F2548       F  0.75172144  0.40623346  0.03429146    -0.20400
F2549       F  0.77739898  0.45852677  0.03979502    -0.20720
F2550       F  0.73129847  0.43412417  0.01591380    -0.23390
C2551       C  0.97691139  0.42653257  0.10459327    -0.06230
C2552       C  0.98166691  0.40881817  0.12842240    -0.00300
C2553       C  0.95556016  0.38286447  0.14177542    -0.08880
C2554       C  0.92637847  0.37841826  0.13464571    -0.06250
C2555       C  0.92204199  0.39821044  0.11346085    -0.00320
C2556       C  0.94765003  0.42167600  0.09690013    -0.08780
C2557       C  0.94370833  0.44077991  0.07042434     0.61590
H2558       H  0.49612982  0.44370385  0.09114309     0.12290
H2559       H  0.90666931  0.36027594  0.14701864     0.12300
C2560       C  0.95849287  0.35951953  0.16287012     0.61830
F2561       F  0.97114756  0.46234847  0.05679280    -0.23340
F2562       F  0.93001306  0.45653491  0.08300568    -0.20670
F2563       F  0.92562693  0.42089649  0.04570187    -0.20350
F2564       F  0.97794092  0.37465577  0.18905119    -0.20400
F2565       F  0.96982873  0.34464414  0.14389859    -0.20720
F2566       F  0.93080820  0.33702181  0.17520402    -0.23390
C2567       C  0.52572661  0.17190641  0.48013078    -0.06230
C2568       C  0.99400202  0.15262512  0.47856873    -0.00300
C2569       C  0.97731924  0.14670709  0.00821241    -0.08880
C2570       C  0.49311404  0.15970483  0.03814661    -0.06250
C2571       C  0.52490847  0.17454210  0.04014844    -0.00320
C2572       C  0.54155238  0.18266071  0.01026478    -0.08780
C2573       C  0.57595967  0.20301379  0.50966636     0.61590
H2574       H  0.53848019  0.17703027  0.45750130     0.12290
H2575       H  0.98056801  0.15636708  0.06053917     0.12300
C2576       C  0.94344957  0.12465139  0.00909179     0.61830
F2577       F  0.58616548  0.21520759  0.47865327    -0.23340
F2578       F  0.58939962  0.18578320  0.01827284    -0.20670
F2579       F  0.58530082  0.22776562  0.03128830    -0.20350
F2580       F  0.93808368  0.09495441  0.00323708    -0.20400
F2581       F  0.92892532  0.13242972  0.48539272    -0.20720
F2582       F  0.93123730  0.12499437  0.03935794    -0.23390
C2583       C  0.52787669  0.18008643  0.29294650    -0.06230
C2584       C  0.99604209  0.16156790  0.29183377    -0.00300
C2585       C  0.98141836  0.15853180  0.26063580    -0.08880
C2586       C  0.99871504  0.16637551  0.23158643    -0.06250
C2587       C  0.53037227  0.18097769  0.23243090    -0.00320
C2588       C  0.54511673  0.19213297  0.26372740    -0.08780
C2589       C  0.57728473  0.21987220  0.26641737     0.61590
H2590       H  0.53920493  0.18525436  0.31674208     0.12290
H2591       H  0.98730549  0.16143666  0.20784660     0.12300
C2592       C  0.94965751  0.15375223  0.25670995     0.61830
F2593       F  0.58433876  0.23094881  0.29849417    -0.23340
F2594       F  0.57942495  0.24366532  0.24691547    -0.20670
F2595       F  0.59887960  0.21271305  0.25644599    -0.20350
F2596       F  0.95208404  0.18254686  0.25279937    -0.20400
F2597       F  0.93127662  0.13949328  0.28322153    -0.20720
F2598       F  0.93560347  0.13616189  0.22881123    -0.23390
C2599       C  0.87900428  0.03947934  0.00573066    -0.06230
C2600       C  0.88404958  0.02607165  0.47794335    -0.00300
C2601       C  0.87765333  0.49486699  0.47947166    -0.08880
C2602       C  0.87013176  0.47959051  0.50973422    -0.06250
C2603       C  0.86724036  0.49360870  0.03843131    -0.00320
C2604       C  0.87097958  0.02401049  0.03623936    -0.08780
C2605       C  0.86735324  0.04067820  0.06564528     0.61590
H2606       H  0.88193761  0.06251856  0.00342871     0.12290
H2607       H  0.86562072  0.45591004  0.51083079     0.12300
C2608       C  0.87571073  0.47657987  0.44881364     0.61830
F2609       F  0.87574538  0.07119674  0.05867957    -0.23340
F2610       F  0.88564196  0.04120314  0.09105250    -0.20670
F2611       F  0.83738830  0.02558195  0.07554072    -0.20350
F2612       F  0.90413099  0.48831575  0.43517350    -0.20400
F2613       F  0.85591546  0.47858198  0.42686345    -0.20720
F2614       F  0.86458511  0.44533268  0.45510403    -0.23390
C2615       C  0.85837086  0.01311177  0.22897578    -0.06230
C2616       C  0.84830765  0.48185526  0.23492422    -0.00300
C2617       C  0.84265905  0.47012191  0.26727725    -0.08880
C2618       C  0.84966248  0.99118561  0.29352422    -0.06250
C2619       C  0.86297642  0.02316932  0.28757291    -0.00320
C2620       C  0.86631383  0.03427738  0.25486708    -0.08780
C2621       C  0.88168350  0.06858395  0.24689751     0.61590
H2622       H  0.86262803  0.02133103  0.20376580     0.12290
H2623       H  0.84693919  0.48319278  0.31874964     0.12300
C2624       C  0.82974220  0.43580576  0.27363096     0.61830
F2625       F  0.87646200  0.07357206  0.21454467    -0.23340
F2626       F  0.91260908  0.08127755  0.25142247    -0.20670
F2627       F  0.87107025  0.08345513  0.26708330    -0.20350
F2628       F  0.84943656  0.42644335  0.26214826    -0.20400
F2629       F  0.80211068  0.41927208  0.25739892    -0.20720
F2630       F  0.82510273  0.42897701  0.30685609    -0.23390
C2631       C  0.54686081  0.11061782  0.38229448    -0.06230
C2632       C  0.52534278  0.09268735  0.40581323    -0.00300
C2633       C  0.53302823  0.07737357  0.43062400    -0.08880
C2634       C  0.56140316  0.07935043  0.42910786    -0.06250
C2635       C  0.58273007  0.09656445  0.40481087    -0.00320
C2636       C  0.57559856  0.11329623  0.38178328    -0.08780
C2637       C  0.59778275  0.13340525  0.35628086     0.61770
H2638       H  0.54092688  0.12260751  0.36409043     0.12290
H2639       H  0.56710263  0.06719082  0.44728447     0.12300
C2640       C  0.51221085  0.05929061  0.45912349     0.61830
F2641       F  0.58604066  0.14740668  0.33636289    -0.23340
F2642       F  0.60471456  0.11491917  0.33695452    -0.20670
F2643       F  0.62367047  0.15676137  0.37153254    -0.20350
F2644       F  0.48640191  0.03322171  0.44724718    -0.20400
F2645       F  0.50430850  0.07819037  0.47641132    -0.20720
F2646       F  0.52600670  0.04905244  0.48134966    -0.23390
C2647       C  0.82046127  0.09888518  0.33126200    -0.06230
C2648       C  0.83243520  0.09991554  0.36313837    -0.00300
C2649       C  0.81645100  0.10180844  0.39116993    -0.08880
C2650       C  0.79027834  0.10352444  0.38526961    -0.06250
C2651       C  0.77697798  0.09949142  0.35388618    -0.00320
C2652       C  0.79228549  0.09712295  0.32616103    -0.08780
C2653       C  0.77832592  0.09071549  0.29177340     0.61590
H2654       H  0.83225317  0.09706426  0.31005683     0.12290
H2655       H  0.77866536  0.10594178  0.40641499     0.12300
C2656       C  0.82293437  0.10078641  0.42807717     0.61830
F2657       F  0.79652624  0.08751365  0.26873536    -0.23340
F2658       F  0.77427416  0.11503424  0.28200453    -0.20670
F2659       F  0.75058772  0.06331669  0.29170640    -0.20350
F2660       F  0.82419603  0.12623124  0.44368467    -0.20400
F2661       F  0.84926424  0.10101790  0.43638667    -0.20720
F2662       F  0.79908914  0.07412557  0.44130975    -0.23390
C2663       C  0.99586432  0.37433321  0.49032382    -0.06230
C2664       C  0.99837671  0.35385430  0.46847740    -0.00300
C2665       C  0.51407661  0.33848391  0.47906357    -0.08880
C2666       C  0.52718874  0.34499113  0.51121185    -0.06250
C2667       C  0.52323344  0.36467375  0.03314591    -0.00320
C2668       C  0.50628313  0.37845055  0.02266550    -0.08780
C2669       C  0.49753829  0.39597458  0.04631325     0.61590
H2670       H  0.98431379  0.38648836  0.48224861     0.12290
H2671       H  0.54109603  0.33535220  0.51917941     0.12300
C2672       C  0.51687974  0.31555303  0.45685387     0.61830
F2673       F  0.47831586  0.40494480  0.03211331    -0.23340
F2674       F  0.52318919  0.42245588  0.05755293    -0.20670
F2675       F  0.48231891  0.37631780  0.07209437    -0.20350
F2676       F  0.53253220  0.33051499  0.42873424    -0.20400
F2677       F  0.98826341  0.29156855  0.44816934    -0.20720
F2678       F  0.53238406  0.30274762  0.47224095    -0.23390
C2679       C  0.99694224  0.33351540  0.22101488    -0.06230
C2680       C  0.52569744  0.36027412  0.21794202    -0.00300
C2681       C  0.54196929  0.37503937  0.24746868    -0.08880
C2682       C  0.52717506  0.36587185  0.27785618    -0.06250
C2683       C  0.99680287  0.34252976  0.28029610    -0.00320
C2684       C  0.98181360  0.32446791  0.25156120    -0.08780
C2685       C  0.95094358  0.29485268  0.25104543     0.61590
H2686       H  0.98514891  0.32064190  0.19895956     0.12290
H2687       H  0.53861656  0.37922983  0.29982530     0.12300
C2688       C  0.57317305  0.40347571  0.24761869     0.61830
F2689       F  0.93290388  0.29656976  0.22645114    -0.23340
F2690       F  0.93537919  0.28879909  0.28025770    -0.20670
F2691       F  0.95511284  0.26999630  0.24406800    -0.20350
F2692       F  0.56965217  0.42856638  0.24046159    -0.20400
F2693       F  0.59184183  0.40039288  0.22520534    -0.20720
F2694       F  0.58725933  0.40866317  0.27800522    -0.23390
C2695       C  0.93373743  0.46030003  0.34247602    -0.06230
C2696       C  0.90964812  0.43281802  0.35535617    -0.00300
C2697       C  0.88331749  0.43366063  0.36533519    -0.08880
C2698       C  0.88445132  0.46269380  0.36682351    -0.06250
C2699       C  0.91095371  0.49107683  0.35968096    -0.00320
C2700       C  0.93533364  0.48945571  0.34477796    -0.08780
C2701       C  0.96285438  0.01790009  0.33075285     0.61590
H2702       H  0.95169507  0.45882585  0.33071085     0.12290
H2703       H  0.86450235  0.46334961  0.37429808     0.12300
C2704       C  0.85346390  0.40418483  0.37239614     0.61830
F2705       F  0.98014397  0.00986779  0.31133228    -0.23340
F2706       F  0.98121462  0.03664936  0.35614025    -0.20670
F2707       F  0.95359497  0.03442674  0.31117041    -0.20350
F2708       F  0.85589828  0.39034560  0.40077810    -0.20400
F2709       F  0.84577616  0.38369877  0.34618124    -0.20720
F2710       F  0.82987850  0.41012863  0.37670300    -0.23390
C2711       C  0.95583818  0.21803932  0.35860091    -0.06230
C2712       C  0.93699522  0.19402007  0.37987726    -0.00300
C2713       C  0.92222022  0.20061400  0.40538071    -0.08880
C2714       C  0.92530647  0.23026589  0.40742239    -0.06250
C2715       C  0.94054842  0.25296643  0.38335044    -0.00320
C2716       C  0.95903208  0.24786335  0.36089705    -0.08780
C2717       C  0.98436893  0.27404668  0.34212027     0.61590
H2718       H  0.96862079  0.21341757  0.34044776     0.12290
H2719       H  0.91486972  0.23550805  0.42754745     0.12300
C2720       C  0.90051158  0.17544392  0.42791327     0.61830
F2721       F  0.50446307  0.26571574  0.32931409    -0.23340
F2722       F  0.00071117  0.29923775  0.36290739    -0.20670
F2723       F  0.97223132  0.28202765  0.31633922    -0.20350
F2724       F  0.91579137  0.16501283  0.44734285    -0.20400
F2725       F  0.87954465  0.15170016  0.40830583    -0.20720
F2726       F  0.88526598  0.18520428  0.44844193    -0.23390
C2727       C  0.55708452  0.43504668  0.36501008    -0.06230
C2728       C  0.53102135  0.43779811  0.36342478    -0.00300
C2729       C  0.53465141  0.46786373  0.36331884    -0.08880
C2730       C  0.56392745  0.49406898  0.36673693    -0.06250
C2731       C  0.59039860  0.49171381  0.36769717    -0.00320
C2732       C  0.58674174  0.46123937  0.36480472    -0.08780
C2733       C  0.61211210  0.45392967  0.35965851     0.61590
H2734       H  0.55420392  0.41188651  0.36427124     0.12290
H2735       H  0.56621467  0.01690260  0.36803873     0.12300
C2736       C  0.50784990  0.47228274  0.35771216     0.61830
F2737       F  0.60385401  0.43211278  0.33481698    -0.23340
F2738       F  0.61634576  0.44117444  0.38793496    -0.20670
F2739       F  0.63925832  0.47910753  0.35036046    -0.20350
F2740       F  0.98480268  0.45413139  0.37933698    -0.20400
F2741       F  0.99821500  0.46355211  0.32554079    -0.20720
F2742       F  0.51521701  0.50293400  0.36207241    -0.23390
C2743       C  0.79825979  0.19000383  0.38082041    -0.06230
C2744       C  0.77259878  0.19255120  0.37431264    -0.00300
C2745       C  0.77619631  0.22273869  0.37111276    -0.08880
C2746       C  0.80567816  0.24921330  0.37332549    -0.06250
C2747       C  0.83144792  0.24668362  0.37995969    -0.00320
C2748       C  0.82744258  0.21654971  0.38423692    -0.08780
C2749       C  0.85400888  0.21263490  0.39264209     0.61590
H2750       H  0.79515475  0.16691890  0.38360281     0.12290
H2751       H  0.80881357  0.27231441  0.37052975     0.12300
C2752       C  0.74908356  0.22717817  0.36596853     0.61830
F2753       F  0.84597786  0.18165979  0.39487420    -0.23340
F2754       F  0.86560811  0.22682673  0.42274293    -0.20670
F2755       F  0.87557144  0.22628674  0.36836046    -0.20350
F2756       F  0.72842701  0.21272921  0.39090886    -0.20400
F2757       F  0.73534737  0.21457131  0.33607432    -0.20720
F2758       F  0.75733690  0.25830651  0.36605722    -0.23390
C2759       C  0.87128927  0.39490280  0.00274687    -0.06230
C2760       C  0.84506980  0.37265503  0.01851371    -0.00300
C2761       C  0.82829204  0.34224230  0.00475728    -0.08880
C2762       C  0.83854666  0.33534137  0.47540796    -0.06250
C2763       C  0.86587413  0.35712905  0.46075383    -0.00320
C2764       C  0.88294920  0.38747560  0.47504046    -0.08780
C2765       C  0.91379673  0.41198445  0.46210491     0.61590
H2766       H  0.88324699  0.41809699  0.01325377     0.12290
H2767       H  0.82626694  0.31217184  0.46477863     0.12300
C2768       C  0.80028139  0.31687290  0.02138236     0.61830
F2769       F  0.92454147  0.44043657  0.47779729    -0.23340
F2770       F  0.91175630  0.41660303  0.42900383    -0.20670
F2771       F  0.93494086  0.40269340  0.46713856    -0.20350
F2772       F  0.77788361  0.32467214  0.02119204    -0.20400
F2773       F  0.80723557  0.31337617  0.05347496    -0.20720
F2774       F  0.78892292  0.28844697  0.00545774    -0.23390
C2775       C  0.87700732  0.36181294  0.21993804    -0.06230
C2776       C  0.84839020  0.35847688  0.21610197    -0.00300
C2777       C  0.82688121  0.34551051  0.24147479    -0.08880
C2778       C  0.83565627  0.33777032  0.27133318    -0.06250
C2779       C  0.86536428  0.34318573  0.27631838    -0.00320
C2780       C  0.88642125  0.35514432  0.24971343    -0.08780
C2781       C  0.91926830  0.36276081  0.25224534     0.61590
H2782       H  0.89288381  0.37225468  0.19992862     0.12290
H2783       H  0.81956591  0.32824195  0.29128165     0.12300
C2784       C  0.79489788  0.33968142  0.23653368     0.61830
F2785       F  0.93536435  0.37639062  0.22398250    -0.23340
F2786       F  0.92018502  0.33585283  0.25745395    -0.20670
F2787       F  0.93409601  0.38372557  0.27738209    -0.20350
F2788       F  0.78147664  0.31969574  0.21008129    -0.20400
F2789       F  0.79557525  0.36728038  0.23009376    -0.20720
F2790       F  0.77710646  0.32640046  0.26400173    -0.23390
O2791       O  0.92949908  0.40095284  0.83544124    -0.80590
O2792       O  0.95657608  0.35002158  0.94038666    -0.80610
O2793       O  0.86480704  0.33334431  0.90777654    -0.80620
O2794       O  0.99341166  0.38783222  0.88195673    -0.80560
O2795       O  0.90369022  0.34780524  0.94117703    -0.80680
O2796       O  0.98317725  0.40297389  0.83668335    -0.80600
O2797       O  0.98443181  0.33765007  0.91075551    -0.80590
O2798       O  0.89793930  0.38202684  0.87494846    -0.80630
C2799       C  0.91232269  0.40383847  0.85534795     1.09100
C2800       C  0.97929958  0.34650545  0.93816679     1.08990
C2801       C  0.87860657  0.34584140  0.93487309     1.09120
C2802       C  0.00079297  0.40860064  0.86093882     1.09000
O2803       O  0.95524045  0.33890479  0.81183677    -0.80590
O2804       O  0.87386445  0.28599201  0.91147183    -0.80670
O2805       O  0.85835733  0.33570758  0.83529391    -0.80600
O2806       O  0.94217496  0.29864000  0.85969978    -0.80580
O2807       O  0.93024359  0.28915270  0.91137592    -0.80630
O2808       O  0.89768473  0.33533898  0.81384662    -0.80600
O2809       O  0.99604641  0.34642792  0.83944521    -0.80560
O2810       O  0.87334030  0.29356425  0.85887915    -0.80630
Co2811     Co  0.94018126  0.36725679  0.83014903     1.51530
Co2812     Co  0.91693821  0.32015108  0.92282151     1.51690
Co2813     Co  0.88883716  0.33889248  0.86591269     1.51570
Co2814     Co  0.96579920  0.34411551  0.86904520     1.51470
O2815       O  0.92988298  0.34775490  0.88095795    -1.42520
C2816       C  0.98202313  0.34218524  0.81198229     1.09030
C2817       C  0.86164706  0.27616868  0.88336690     1.09120
C2818       C  0.87416543  0.33827148  0.80985164     1.09060
C2819       C  0.93737032  0.28153271  0.88443503     1.09030
O2820       O  0.95769250  0.11612546  0.81778534    -0.80590
O2821       O  0.93735102  0.04671290  0.86919315    -0.80610
O2822       O  0.49008483  0.10839013  0.88436921    -0.80620
O2823       O  0.86164818  0.04215505  0.84087581    -0.80560
O2824       O  0.97485512  0.07256113  0.92231568    -0.80680
O2825       O  0.90369498  0.06614905  0.81291618    -0.80600
O2826       O  0.88889838  0.02046521  0.88173278    -0.80590
O2827       O  0.98293035  0.15468712  0.85098153    -0.80630
C2828       C  0.97871973  0.14357651  0.82180155     1.09100
C2829       C  0.91237945  0.02114832  0.86963418     1.08990
C2830       C  0.49571322  0.09138550  0.90431174     1.09120
C2831       C  0.87669112  0.04472989  0.81530621     1.09000
O2832       O  0.87497712  0.09991031  0.83871977    -0.80590
O2833       O  0.95659573  0.11180475  0.94163156    -0.80670
O2834       O  0.93956369  0.15008838  0.89939152    -0.80600
O2835       O  0.88518034  0.05988950  0.93527352    -0.80580
O2836       O  0.91897532  0.04618551  0.93396803    -0.80630
O2837       O  0.93078676  0.15145775  0.84644564    -0.80600
O2838       O  0.86381638  0.08394588  0.88986154    -0.80560
O2839       O  0.99294688  0.15540931  0.91982662    -0.80630
Co2840     Co  0.91721242  0.10725441  0.83128583     1.51530
Co2841     Co  0.94581905  0.07930612  0.90271628     1.51690
Co2842     Co  0.96138716  0.12719890  0.89146644     1.51570
Co2843     Co  0.87805434  0.05451784  0.88688094     1.51470
O2844       O  0.92075021  0.09102156  0.87557561    -1.42520
C2845       C  0.85913896  0.09541537  0.86454408     1.09030
C2846       C  0.98035940  0.13944865  0.94538013     1.09120
C2847       C  0.93470631  0.16312693  0.87530227     1.09060
C2848       C  0.89668631  0.04518133  0.94799843     1.09030
O2849       O  0.52571452  0.40299230  0.61913556    -0.80590
O2850       O  0.65667083  0.48367986  0.59166591    -0.80610
O2851       O  0.57569064  0.47074663  0.61606715    -0.80620
O2852       O  0.56526233  0.40525391  0.55939603    -0.80560
O2853       O  0.62274584  0.49634402  0.63508991    -0.80680
O2854       O  0.54002589  0.36418859  0.58929140    -0.80600
O2855       O  0.61760692  0.45737020  0.55870839    -0.80590
O2856       O  0.52958284  0.43432065  0.65921927    -0.80630
C2857       C  0.51353010  0.41561254  0.63635963     1.09100
C2858       C  0.64347755  0.48055409  0.56421674     1.08990
C2859       C  0.59888400  0.49632205  0.62426967     1.09120
C2860       C  0.54359071  0.37807010  0.56210170     1.09000
O2861       O  0.58146141  0.36937345  0.64085564    -0.80590
O2862       O  0.62557575  0.45197723  0.68088209    -0.80670
O2863       O  0.55727051  0.40251274  0.68131605    -0.80600
O2864       O  0.64934284  0.42624284  0.58291706    -0.80580
O2865       O  0.65730918  0.43863985  0.63536813    -0.80630
O2866       O  0.52515264  0.35812111  0.65795886    -0.80600
O2867       O  0.59401567  0.37175384  0.58837045    -0.80560
O2868       O  0.59081429  0.46477578  0.68220329    -0.80630
Co2869     Co  0.55723991  0.38924412  0.63163592     1.51530
Co2870     Co  0.63777291  0.46493635  0.63531941     1.51690
Co2871     Co  0.56649890  0.43534005  0.64498031     1.51570
Co2872     Co  0.60562878  0.41589059  0.57492441     1.51470
O2873       O  0.59691143  0.42851628  0.61923357    -1.42520
C2874       C  0.58843922  0.35840968  0.61647713     1.09030
C2875       C  0.61371707  0.46532270  0.69569804     1.09120
C2876       C  0.53639899  0.37384288  0.68423149     1.09060
C2877       C  0.66489489  0.43038254  0.60913705     1.09030
O2878       O  0.68652914  0.15858325  0.85203055    -0.80590
O2879       O  0.64340767  0.02116106  0.88432722    -0.80610
O2880       O  0.66925429  0.06923101  0.80737398    -0.80620
O2881       O  0.61343313  0.07664774  0.92401814    -0.80560
O2882       O  0.68295086  0.03997613  0.83396027    -0.80680
O2883       O  0.63431956  0.11264465  0.88589868    -0.80600
O2884       O  0.62094513  0.04740547  0.87208749    -0.80590
O2885       O  0.66935169  0.11955606  0.81913085    -0.80630
C2886       C  0.67807310  0.14753132  0.82316333     1.09100
C2887       C  0.61998593  0.02147440  0.87401193     1.08990
C2888       C  0.66753799  0.04351724  0.81119765     1.09120
C2889       C  0.61157799  0.09569900  0.90507240     1.09000
O2890       O  0.68005502  0.15869029  0.92162162    -0.80590
O2891       O  0.73078372  0.08309797  0.87954530    -0.80670
O2892       O  0.73326815  0.15090273  0.84263568    -0.80600
O2893       O  0.64630709  0.05053349  0.93579484    -0.80580
O2894       O  0.69331001  0.06341622  0.92953289    -0.80630
O2895       O  0.72619709  0.15164648  0.89632303    -0.80600
O2896       O  0.67213184  0.11332780  0.93992553    -0.80560
O2897       O  0.73255826  0.09655395  0.82800097    -0.80630
Co2898     Co  0.68142825  0.12998806  0.89113661     1.51530
Co2899     Co  0.68774731  0.05464413  0.88161389     1.51690
Co2900     Co  0.69978906  0.10802485  0.82693345     1.51570
Co2901     Co  0.64774499  0.08119401  0.90278418     1.51470
O2902       O  0.68246303  0.09216680  0.87260095    -1.42520
C2903       C  0.67500752  0.14029594  0.94555362     1.09030
C2904       C  0.74531532  0.09324682  0.85337626     1.09120
C2905       C  0.74257758  0.16332401  0.87108278     1.09060
C2906       C  0.66985546  0.05122525  0.94676662     1.09030
O2907       O  0.53962909  0.12363488  0.67394479    -0.80590
O2908       O  0.61615615  0.16635271  0.57228432    -0.80610
O2909       O  0.53001656  0.18247375  0.59987731    -0.80620
O2910       O  0.60033085  0.12934050  0.62017005    -0.80560
O2911       O  0.56215867  0.17213897  0.57430729    -0.80680
O2912       O  0.59247996  0.12059067  0.67232849    -0.80600
O2913       O  0.65662436  0.17127923  0.59933064    -0.80590
O2914       O  0.53599612  0.13348025  0.62212927    -0.80630
C2915       C  0.52549541  0.11563896  0.64659043     1.09100
C2916       C  0.64126024  0.16564020  0.57257416     1.08990
C2917       C  0.54017871  0.17798243  0.57286644     1.09120
C2918       C  0.59591561  0.11182528  0.64411867     1.09000
O2919       O  0.62401856  0.18416081  0.70117174    -0.80590
O2920       O  0.60164519  0.23601965  0.59767844    -0.80670
O2921       O  0.53400117  0.17371985  0.67304940    -0.80600
O2922       O  0.65923815  0.21641977  0.64153513    -0.80580
O2923       O  0.65007332  0.22912509  0.59458558    -0.80630
O2924       O  0.57299551  0.18518191  0.70430749    -0.80600
O2925       O  0.64612247  0.16551372  0.67149568    -0.80560
O2926       O  0.57546601  0.22320210  0.64224874    -0.80630
Co2927     Co  0.58316256  0.15522107  0.68491224     1.51530
Co2928     Co  0.60594157  0.19845525  0.59095184     1.51690
Co2929     Co  0.55777077  0.17917704  0.63059851     1.51570
Co2930     Co  0.62889120  0.17394436  0.62939618     1.51470
O2931       O  0.59623878  0.18124242  0.64262701    -1.42520
C2932       C  0.64200391  0.17411446  0.69964414     1.09030
C2933       C  0.59080907  0.24340382  0.62142708     1.09120
C2934       C  0.54674118  0.18118130  0.70149926     1.09060
C2935       C  0.66795039  0.23513942  0.61847717     1.09030
O2936       O  0.89778610  0.41556220  0.64775647    -0.80590
O2937       O  0.85945486  0.44944866  0.56911039    -0.80610
O2938       O  0.85076750  0.38544736  0.57713782    -0.80620
O2939       O  0.88395171  0.49935965  0.64831278    -0.80560
O2940       O  0.81679867  0.39104546  0.54831599    -0.80680
O2941       O  0.90923009  0.47413911  0.64404028    -0.80600
O2942       O  0.84636942  0.48071159  0.59277782    -0.80590
O2943       O  0.87143780  0.39199831  0.60272679    -0.80630
C2944       C  0.89552600  0.40215945  0.62072858     1.09100
C2945       C  0.85809462  0.47421199  0.56878300     1.08990
C2946       C  0.83648634  0.38249961  0.54927654     1.09120
C2947       C  0.90923277  0.49933154  0.64604162     1.09000
O2948       O  0.87359905  0.46521033  0.70004056    -0.80590
O2949       O  0.78856337  0.37364754  0.60888106    -0.80670
O2950       O  0.84419876  0.36776133  0.65950013    -0.80600
O2951       O  0.79479800  0.43813582  0.63294954    -0.80580
O2952       O  0.79552264  0.42672829  0.58161890    -0.80630
O2953       O  0.85095498  0.40320103  0.69550411    -0.80600
O2954       O  0.82831195  0.45449744  0.68584437    -0.80560
O2955       O  0.80802831  0.34309010  0.61145836    -0.80630
Co2956     Co  0.88018855  0.43848828  0.66877681     1.51530
Co2957     Co  0.82652743  0.41244569  0.59022996     1.51690
Co2958     Co  0.83189924  0.38587497  0.62271874     1.51570
Co2959     Co  0.83880518  0.46599549  0.63961771     1.51470
O2960       O  0.84803719  0.43108863  0.63371316    -1.42520
C2961       C  0.84916052  0.46432291  0.70672546     1.09030
C2962       C  0.78486421  0.34614719  0.61063524     1.09120
C2963       C  0.84563478  0.37623556  0.68908137     1.09060
C2964       C  0.78159909  0.43081583  0.60534197     1.09030
C2965       C  0.94049228  0.05668031  0.63948147    -0.06230
C2966       C  0.93950349  0.02880939  0.64722055    -0.00300
C2967       C  0.96743225  0.02996903  0.65607595    -0.08880
C2968       C  0.99485198  0.05876212  0.65507165    -0.06250
C2969       C  0.99577081  0.08600751  0.64471020    -0.00320
C2970       C  0.96806296  0.08485045  0.63654543    -0.08780
C2971       C  0.96757078  0.11275204  0.62299609     0.61590
H2972       H  0.91939448  0.05625288  0.63521760     0.12290
H2973       H  0.51614480  0.06026588  0.66200953     0.12300
C2974       C  0.96891948  0.00167136  0.66784800     0.61830
F2975       F  0.93842753  0.10687058  0.61625156    -0.23340
F2976       F  0.98337188  0.12044303  0.59398337    -0.20670
F2977       F  0.98094200  0.13729001  0.64500055    -0.20350
F2978       F  0.96230723  0.48099843  0.64204348    -0.20400
F2979       F  0.94856323  0.48728291  0.69315770    -0.20720
F2980       F  0.49751153  0.00959357  0.67973692    -0.23390
C2981       C  0.70331126  0.28554847  0.59413195    -0.06230
C2982       C  0.69854526  0.26312802  0.61790067    -0.00300
C2983       C  0.72306929  0.26781183  0.63876663    -0.08880
C2984       C  0.75110002  0.29527509  0.63505543    -0.06250
C2985       C  0.75459961  0.31864649  0.61321142    -0.00320
C2986       C  0.72998910  0.31430181  0.59317611    -0.08780
C2987       C  0.73095511  0.33995829  0.57204877     0.61590
H2988       H  0.68557383  0.28072814  0.57650435     0.12290
H2989       H  0.77052983  0.29908717  0.64973746     0.12300
C2990       C  0.72045179  0.24402337  0.66399404     0.61830
F2991       F  0.70520518  0.32956249  0.55251389    -0.23340
F2992       F  0.75563905  0.35230921  0.55152449    -0.20670
F2993       F  0.73287672  0.36307885  0.59247497    -0.20350
F2994       F  0.71090870  0.21565800  0.64866797    -0.20400
F2995       F  0.69999598  0.24080978  0.68806784    -0.20720
F2996       F  0.74795278  0.25281438  0.67950219    -0.23390
C2997       C  0.65021878  0.16603458  0.79094225    -0.06230
C2998       C  0.67678011  0.16481023  0.79388334    -0.00300
C2999       C  0.69346359  0.16781819  0.76450083    -0.08880
C3000       C  0.68274015  0.17273659  0.73400123    -0.06250
C3001       C  0.65363512  0.16906865  0.73137420    -0.00320
C3002       C  0.63585829  0.16175439  0.76037119    -0.08780
C3003       C  0.60123155  0.14401783  0.76095073     0.61590
H3004       H  0.63770020  0.16404562  0.81283652     0.12290
H3005       H  0.69598036  0.17738502  0.71178860     0.12300
C3006       C  0.72180074  0.16497535  0.76488799     0.61830
F3007       F  0.59122962  0.11690454  0.77848685    -0.23340
F3008       F  0.58776234  0.13472705  0.73064953    -0.20670
F3009       F  0.59076884  0.16170148  0.77580253    -0.20350
F3010       F  0.71460163  0.13541492  0.77441776    -0.20400
F3011       F  0.74309001  0.18652378  0.78643313    -0.20720
F3012       F  0.73495883  0.17018896  0.73408803    -0.23390
C3013       C  0.64017900  0.12629374  0.99179907    -0.06230
C3014       C  0.66878311  0.14728311  0.97911956    -0.00300
C3015       C  0.68949497  0.17307336  0.99848417    -0.08880
C3016       C  0.68029137  0.17733662  0.52994069    -0.06250
C3017       C  0.65092299  0.15702648  0.54183329    -0.00320
C3018       C  0.63056440  0.13081253  0.52252394    -0.08780
C3019       C  0.59898847  0.10712998  0.53426927     0.61590
H3020       H  0.62479619  0.10653655  0.97682745     0.12290
H3021       H  0.69551216  0.19733958  0.54489450     0.12300
C3022       C  0.72100641  0.19563303  0.98603351     0.61830
F3023       F  0.58507936  0.08127964  0.51377956    -0.23340
F3024       F  0.58057768  0.12017720  0.53520108    -0.20670
F3025       F  0.60110859  0.09701258  0.56523298    -0.20350
F3026       F  0.71883537  0.21102531  0.95877463    -0.20400
F3027       F  0.73563537  0.17956958  0.97738783    -0.20720
F3028       F  0.73851602  0.21764239  0.50969667    -0.23390
C3029       C  0.65391086  0.48651027  0.00577784    -0.06230
C3030       C  0.65845820  0.50150837  0.53618191    -0.00300
C3031       C  0.67250633  0.03438348  0.53733449    -0.08880
C3032       C  0.67720502  0.05055390  0.50736743    -0.06250
C3033       C  0.66877464  0.03454658  0.97711053    -0.00320
C3034       C  0.65844594  0.50232629  0.97620707    -0.08780
C3035       C  0.64902690  0.48379659  0.94451403     0.61590
H3036       H  0.64431304  0.46148636  0.00542002     0.12290
H3037       H  0.68622905  0.07547381  0.50739977     0.12300
C3038       C  0.68140534  0.05196935  0.56968389     0.61830
F3039       F  0.64324122  0.45367620  0.94894246    -0.23340
F3040       F  0.67178573  0.49773568  0.92142639    -0.20670
F3041       F  0.62266411  0.48229978  0.93324193    -0.20350
F3042       F  0.70126225  0.04557552  0.58670294    -0.20400
F3043       F  0.65579525  0.04294271  0.58818033    -0.20720
F3044       F  0.69553142  0.08382435  0.56517614    -0.23390
C3045       C  0.66510528  0.00491613  0.77162588    -0.06230
C3046       C  0.65035188  0.01937989  0.78572370    -0.00300
C3047       C  0.62247445  0.01418198  0.77121764    -0.08880
C3048       C  0.61130351  0.49547141  0.74293717    -0.06250
C3049       C  0.62686453  0.48245087  0.72753915    -0.00320
C3050       C  0.65459869  0.98748858  0.74217912    -0.08780
C3051       C  0.67443302  0.97668011  0.72605436     0.61590
H3052       H  0.68642421  0.00945287  0.78259574     0.12290
H3053       H  0.59013273  0.49169859  0.73217416     0.12300
C3054       C  0.60268547  0.02704758  0.78323606     0.61830
F3055       F  0.70102103  0.98561007  0.74364699    -0.23340
F3056       F  0.68251431  0.98978705  0.69507976    -0.20670
F3057       F  0.65879848  0.44456196  0.72383729    -0.20350
F3058       F  0.61373425  0.04580352  0.81053587    -0.20400
F3059       F  0.57420743  0.00247167  0.79076261    -0.20720
F3060       F  0.59953016  0.54425055  0.75836820    -0.23390
C3061       C  0.62243898  0.05190849  0.64129011    -0.06230
C3062       C  0.59755347  0.02613564  0.62625492    -0.00300
C3063       C  0.57210167  0.02941126  0.61696727    -0.08880
C3064       C  0.57261920  0.05763047  0.62346707    -0.06250
C3065       C  0.59717520  0.08267645  0.63926108    -0.00320
C3066       C  0.62294952  0.07999985  0.64764168    -0.08780
C3067       C  0.65127295  0.10655010  0.66303529     0.61590
H3068       H  0.64176779  0.04982804  0.64877972     0.12290
H3069       H  0.55335849  0.06025205  0.61689813     0.12300
C3070       C  0.54310931  0.00277318  0.60335957     0.61830
F3071       F  0.67368798  0.09906512  0.66887540    -0.23340
F3072       F  0.64393262  0.11420469  0.69289590    -0.20670
F3073       F  0.66323381  0.13162757  0.64199260    -0.20350
F3074       F  0.53007183  0.48148692  0.62828544    -0.20400
F3075       F  0.54898010  0.48972478  0.57627955    -0.20720
F3076       F  0.52249175  0.01170833  0.59356060    -0.23390
C3077       C  0.61669427  0.33011418  0.61642141    -0.06230
C3078       C  0.58883643  0.32894960  0.62010668    -0.00300
C3079       C  0.56211827  0.29964282  0.62527053    -0.08880
C3080       C  0.56456999  0.27286235  0.62718140    -0.06250
C3081       C  0.59214897  0.27385476  0.62252865    -0.00320
C3082       C  0.61873419  0.30290049  0.61722568    -0.08780
C3083       C  0.64873779  0.30499844  0.61092939     0.61590
H3084       H  0.63674463  0.35249397  0.61195733     0.12290
H3085       H  0.54447535  0.25038473  0.63102432     0.12300
C3086       C  0.53080897  0.29582538  0.62789370     0.61830
F3087       F  0.67247592  0.33547345  0.61123578    -0.23340
F3088       F  0.64714745  0.29229310  0.58022038    -0.20670
F3089       F  0.65454077  0.28886691  0.63488805    -0.20350
F3090       F  0.52472406  0.30819783  0.60052283    -0.20400
F3091       F  0.52955271  0.31039416  0.65616869    -0.20720
F3092       F  0.50809689  0.26491755  0.62966144    -0.23390
C3093       C  0.73494100  0.42303980  0.63352779    -0.06230
C3094       C  0.74999170  0.42705067  0.60334362    -0.00300
C3095       C  0.73514850  0.42905854  0.57440700    -0.08880
C3096       C  0.70710251  0.42891897  0.57731377    -0.06250
C3097       C  0.69326463  0.42721089  0.60806683    -0.00320
C3098       C  0.70749748  0.42339085  0.63662258    -0.08780
C3099       C  0.69525763  0.42153306  0.67095839     0.61590
H3100       H  0.74559728  0.42062122  0.65559602     0.12290
H3101       H  0.69625726  0.43124912  0.55534293     0.12300
C3102       C  0.74900176  0.43204633  0.54072012     0.61830
F3103       F  0.71016798  0.41380162  0.69447205    -0.23340
F3104       F  0.66472890  0.39932063  0.67207912    -0.20670
F3105       F  0.69960828  0.45037278  0.67922047    -0.20350
F3106       F  0.75172183  0.40623451  0.53429150    -0.20400
F3107       F  0.77739911  0.45852782  0.53979514    -0.20720
F3108       F  0.73129856  0.43412499  0.51591399    -0.23390
C3109       C  0.97691146  0.42653277  0.60459260    -0.06230
C3110       C  0.98166681  0.40881833  0.62842182    -0.00300
C3111       C  0.95555998  0.38286457  0.64177464    -0.08880
C3112       C  0.92637833  0.37841835  0.63464464    -0.06250
C3113       C  0.92204198  0.39821055  0.61345967    -0.00320
C3114       C  0.94765014  0.42167613  0.59689912    -0.08780
C3115       C  0.94370859  0.44077997  0.57042312     0.61590
H3116       H  0.49613002  0.44370418  0.59114258     0.12290
H3117       H  0.90666909  0.36027605  0.64701751     0.12300
C3118       C  0.95849257  0.35951961  0.66286943     0.61830
F3119       F  0.97114793  0.46234854  0.55679175    -0.23340
F3120       F  0.93001319  0.45653496  0.58300413    -0.20670
F3121       F  0.92562740  0.42089650  0.54570058    -0.20350
F3122       F  0.97794063  0.37465583  0.68905050    -0.20400
F3123       F  0.96982839  0.34464412  0.64389799    -0.20720
F3124       F  0.93080786  0.33702199  0.67520333    -0.23390
C3125       C  0.52572663  0.17190559  0.98013123    -0.06230
C3126       C  0.99400194  0.15262498  0.97856910    -0.00300
C3127       C  0.97731938  0.14670684  0.50821213    -0.08880
C3128       C  0.49311411  0.15970484  0.53814627    -0.06250
C3129       C  0.52490857  0.17454262  0.54014804    -0.00320
C3130       C  0.54155239  0.18266166  0.51026433    -0.08780
C3131       C  0.57595973  0.20301208  0.00966682     0.61590
H3132       H  0.53848024  0.17702903  0.95750182     0.12290
H3133       H  0.98056813  0.15636700  0.56053884     0.12300
C3134       C  0.94344985  0.12465038  0.50909169     0.61830
F3135       F  0.58616577  0.21520575  0.97865375    -0.23340
F3136       F  0.58940029  0.18578562  0.51827239    -0.20670
F3137       F  0.58530015  0.22776725  0.53128784    -0.20350
F3138       F  0.93808478  0.09495370  0.50323682    -0.20400
F3139       F  0.92892568  0.13243129  0.98539261    -0.20720
F3140       F  0.93123756  0.12499287  0.53935798    -0.23390
C3141       C  0.52787698  0.18008647  0.79294646    -0.06230
C3142       C  0.99604240  0.16156774  0.79183391    -0.00300
C3143       C  0.98141852  0.15853126  0.76063594    -0.08880
C3144       C  0.99871510  0.16637484  0.73158648    -0.06250
C3145       C  0.53037234  0.18097742  0.73243080    -0.00320
C3146       C  0.54511686  0.19213295  0.76372723    -0.08780
C3147       C  0.57728476  0.21987238  0.76641698     0.61590
H3148       H  0.53920532  0.18525466  0.81674198     0.12290
H3149       H  0.98730546  0.16143575  0.70784669     0.12300
C3150       C  0.94965776  0.15375194  0.75671025     0.61830
F3151       F  0.58433878  0.23094933  0.79849367    -0.23340
F3152       F  0.57942474  0.24366522  0.74691477    -0.20670
F3153       F  0.59887976  0.21271335  0.75644580    -0.20350
F3154       F  0.95208448  0.18254670  0.75280012    -0.20400
F3155       F  0.93127684  0.13949278  0.78322174    -0.20720
F3156       F  0.93560362  0.13616192  0.72881136    -0.23390
C3157       C  0.87900472  0.03947975  0.50573035    -0.06230
C3158       C  0.88404905  0.02607133  0.97794354    -0.00300
C3159       C  0.87765227  0.49486626  0.97947186    -0.08880
C3160       C  0.87013082  0.47958967  0.00973440    -0.06250
C3161       C  0.86724096  0.49360954  0.53843095    -0.00320
C3162       C  0.87097985  0.02401096  0.53623906    -0.08780
C3163       C  0.86735312  0.04067861  0.56564480     0.61590
H3164       H  0.88193811  0.06251898  0.50342828     0.12290
H3165       H  0.86561970  0.45590916  0.01083085     0.12300
C3166       C  0.87570963  0.47657929  0.94881373     0.61830
F3167       F  0.87574497  0.07119704  0.55867890    -0.23340
F3168       F  0.88564178  0.04120387  0.59105226    -0.20670
F3169       F  0.83738811  0.02558211  0.57554001    -0.20350
F3170       F  0.90412990  0.48831522  0.93517362    -0.20400
F3171       F  0.85591442  0.47858157  0.92686359    -0.20720
F3172       F  0.86458396  0.44533205  0.95510393    -0.23390
C3173       C  0.85837312  0.01311288  0.72897564    -0.06230
C3174       C  0.84830987  0.48185682  0.73492350    -0.00300
C3175       C  0.84265962  0.47012299  0.76727632    -0.08880
C3176       C  0.84966260  0.99118615  0.79352394    -0.06250
C3177       C  0.86297735  0.02316998  0.78757284    -0.00320
C3178       C  0.86631609  0.03427839  0.75486702    -0.08780
C3179       C  0.88168709  0.06858508  0.74689761     0.61590
H3180       H  0.86263106  0.02133230  0.70376574     0.12290
H3181       H  0.84693792  0.48319315  0.81874880     0.12300
C3182       C  0.82974165  0.43580661  0.77362964     0.61830
F3183       F  0.87646683  0.07357370  0.71454450    -0.23340
F3184       F  0.91261245  0.08127765  0.75142360    -0.20670
F3185       F  0.87107405  0.08345688  0.76708276    -0.20350
F3186       F  0.84943570  0.42644354  0.76214755    -0.20400
F3187       F  0.80211048  0.41927382  0.75739675    -0.20720
F3188       F  0.82510121  0.42897746  0.80685463    -0.23390
C3189       C  0.54686038  0.11061718  0.88229436    -0.06230
C3190       C  0.52534234  0.09268651  0.90581302    -0.00300
C3191       C  0.53302768  0.07737224  0.93062333    -0.08880
C3192       C  0.56140274  0.07934939  0.92910719    -0.06250
C3193       C  0.58272980  0.09656393  0.90481052    -0.00320
C3194       C  0.57559817  0.11329567  0.88178301    -0.08780
C3195       C  0.59778226  0.13340475  0.85628054     0.61770
H3196       H  0.54092647  0.12260707  0.86409053     0.12290
H3197       H  0.56710222  0.06718964  0.94728361     0.12300
C3198       C  0.51221004  0.05928844  0.95912233     0.61830
F3199       F  0.58603996  0.14740591  0.83636248    -0.23340
F3200       F  0.60471428  0.11491878  0.83695425    -0.20670
F3201       F  0.62366989  0.15676105  0.87153216    -0.20350
F3202       F  0.48640101  0.03322012  0.94724522    -0.20400
F3203       F  0.50430789  0.07818781  0.97641121    -0.20720
F3204       F  0.52600554  0.04904923  0.98134777    -0.23390
C3205       C  0.82046135  0.09888526  0.83126176    -0.06230
C3206       C  0.83243539  0.09991599  0.86313815    -0.00300
C3207       C  0.81645136  0.10180934  0.89116963    -0.08880
C3208       C  0.79027870  0.10352532  0.88526922    -0.06250
C3209       C  0.77697820  0.09949190  0.85388583    -0.00320
C3210       C  0.79228558  0.09712309  0.82616074    -0.08780
C3211       C  0.77832588  0.09071531  0.79177318     0.61590
H3212       H  0.83225314  0.09706400  0.81005667     0.12290
H3213       H  0.77866583  0.10594298  0.90641452     0.12300
C3214       C  0.82293499  0.10078793  0.92807689     0.61830
F3215       F  0.79652609  0.08751319  0.76873520    -0.23340
F3216       F  0.77427415  0.11503401  0.78200401    -0.20670
F3217       F  0.75058765  0.06331656  0.79170646    -0.20350
F3218       F  0.82419694  0.12623312  0.94368386    -0.20400
F3219       F  0.84926485  0.10101938  0.93638637    -0.20720
F3220       F  0.79908977  0.07412742  0.94131002    -0.23390
C3221       C  0.99586421  0.37433336  0.99032393    -0.06230
C3222       C  0.99837674  0.35385464  0.96847736    -0.00300
C3223       C  0.51407667  0.33848423  0.97906342    -0.08880
C3224       C  0.52718874  0.34499129  0.01121171    -0.06250
C3225       C  0.52323350  0.36467373  0.53314590    -0.00320
C3226       C  0.50628324  0.37845053  0.52266535    -0.08780
C3227       C  0.49753833  0.39597457  0.54631300     0.61590
H3228       H  0.98431362  0.38648848  0.98224882     0.12290
H3229       H  0.54109608  0.33535239  0.01917918     0.12300
C3230       C  0.51687992  0.31555353  0.95685356     0.61830
F3231       F  0.47831591  0.40494474  0.53211294    -0.23340
F3232       F  0.52318919  0.42245590  0.55755269    -0.20670
F3233       F  0.48231891  0.37631781  0.57209411    -0.20350
F3234       F  0.53253246  0.33051569  0.92873404    -0.20400
F3235       F  0.98826361  0.29156907  0.94816889    -0.20720
F3236       F  0.53238424  0.30274807  0.97224054    -0.23390
C3237       C  0.99694195  0.33351557  0.72101478    -0.06230
C3238       C  0.52569739  0.36027410  0.71794188    -0.00300
C3239       C  0.54196957  0.37503902  0.74746848    -0.08880
C3240       C  0.52717538  0.36587183  0.77785601    -0.06250
C3241       C  0.99680304  0.34253001  0.78029601    -0.00320
C3242       C  0.98181351  0.32446818  0.75156120    -0.08780
C3243       C  0.95094339  0.29485306  0.75104563     0.61590
H3244       H  0.98514835  0.32064225  0.69895948     0.12290
H3245       H  0.53861711  0.37922980  0.79982506     0.12300
C3246       C  0.57317367  0.40347483  0.74761846     0.61830
F3247       F  0.93290344  0.29657042  0.72645183    -0.23340
F3248       F  0.93537944  0.28879934  0.78025821    -0.20670
F3249       F  0.95511238  0.26999662  0.74406757    -0.20350
F3250       F  0.56965341  0.42856613  0.74046272    -0.20400
F3251       F  0.59184177  0.40039202  0.72520413    -0.20720
F3252       F  0.58726034  0.40866113  0.77800465    -0.23390
C3253       C  0.93373747  0.46030049  0.84247589    -0.06230
C3254       C  0.90964826  0.43281845  0.85535614    -0.00300
C3255       C  0.88331759  0.43366094  0.86533524    -0.08880
C3256       C  0.88445136  0.46269406  0.86682372    -0.06250
C3257       C  0.91095372  0.49107712  0.85968121    -0.00320
C3258       C  0.93533356  0.48945610  0.84477788    -0.08780
C3259       C  0.96285381  0.01790032  0.83075224     0.61590
H3260       H  0.95169512  0.45882638  0.83071060     0.12290
H3261       H  0.86450240  0.46334982  0.87429841     0.12300
C3262       C  0.85346403  0.40418509  0.87239612     0.61830
F3263       F  0.98014316  0.00986798  0.81133131    -0.23340
F3264       F  0.98121437  0.03664972  0.85613938    -0.20670
F3265       F  0.95359404  0.03442683  0.81117006    -0.20350
F3266       F  0.85589840  0.39034581  0.90077804    -0.20400
F3267       F  0.84577635  0.38369910  0.84618117    -0.20720
F3268       F  0.82987858  0.41012882  0.87670298    -0.23390
C3269       C  0.95583911  0.21804010  0.85860094    -0.06230
C3270       C  0.93699591  0.19402073  0.87987708    -0.00300
C3271       C  0.92222053  0.20061454  0.90538020    -0.08880
C3272       C  0.92530677  0.23026642  0.90742189    -0.06250
C3273       C  0.94054894  0.25296707  0.88335012    -0.00320
C3274       C  0.95903288  0.24786411  0.86089699    -0.08780
C3275       C  0.98436986  0.27404754  0.84212044     0.61590
H3276       H  0.96862196  0.21341845  0.84044803     0.12290
H3277       H  0.91486981  0.23550848  0.92754681     0.12300
C3278       C  0.90051132  0.17544426  0.92791216     0.61830
F3279       F  0.50446443  0.26571686  0.82931496    -0.23340
F3280       F  0.00071172  0.29923866  0.86290761    -0.20670
F3281       F  0.97223245  0.28202839  0.81633907    -0.20350
F3282       F  0.91579051  0.16501265  0.94734197    -0.20400
F3283       F  0.87954469  0.15170094  0.90830407    -0.20720
F3284       F  0.88526547  0.18520453  0.94844056    -0.23390
C3285       C  0.55708463  0.43504724  0.86500995    -0.06230
C3286       C  0.53102153  0.43779877  0.86342469    -0.00300
C3287       C  0.53465169  0.46786445  0.86331866    -0.08880
C3288       C  0.56392779  0.49406962  0.86673679    -0.06250
C3289       C  0.59039887  0.49171432  0.86769699    -0.00320
C3290       C  0.58674188  0.46123985  0.86480447    -0.08780
C3291       C  0.61211210  0.45393003  0.85965789     0.61590
H3292       H  0.55420396  0.41188704  0.86427109     0.12290
H3293       H  0.56621489  0.01690349  0.86803873     0.12300
C3294       C  0.50785025  0.47228358  0.85771190     0.61830
F3295       F  0.60385382  0.43211338  0.83481605    -0.23340
F3296       F  0.61634575  0.44117448  0.88793412    -0.20670
F3297       F  0.63925838  0.47910787  0.85035996    -0.20350
F3298       F  0.98480303  0.45413245  0.87933687    -0.20400
F3299       F  0.99821519  0.46355279  0.82554062    -0.20720
F3300       F  0.51521750  0.50293491  0.86207187    -0.23390
C3301       C  0.79825999  0.19000436  0.88081956    -0.06230
C3302       C  0.77259889  0.19255173  0.87431241    -0.00300
C3303       C  0.77619637  0.22273923  0.87111286    -0.08880
C3304       C  0.80567822  0.24921385  0.87332550    -0.06250
C3305       C  0.83144805  0.24668416  0.87995920    -0.00320
C3306       C  0.82744279  0.21655024  0.88423595    -0.08780
C3307       C  0.85400917  0.21263545  0.89264073     0.61590
H3308       H  0.79515500  0.16691943  0.88360166     0.12290
H3309       H  0.80881359  0.27231497  0.87053006     0.12300
C3310       C  0.74908357  0.22717868  0.86596896     0.61830
F3311       F  0.84597826  0.18166034  0.89487222    -0.23340
F3312       F  0.86560827  0.22682684  0.92274177    -0.20670
F3313       F  0.87557180  0.22628776  0.86835924    -0.20350
F3314       F  0.72842713  0.21272961  0.89090937    -0.20400
F3315       F  0.73534723  0.21457192  0.83607477    -0.20720
F3316       F  0.75733687  0.25830702  0.86605787    -0.23390
C3317       C  0.87128925  0.39490313  0.50274645    -0.06230
C3318       C  0.84506969  0.37265554  0.51851330    -0.00300
C3319       C  0.82829189  0.34224272  0.50475710    -0.08880
C3320       C  0.83854677  0.33534122  0.97540795    -0.06250
C3321       C  0.86587417  0.35712907  0.96075383    -0.00320
C3322       C  0.88294921  0.38747552  0.97504069    -0.08780
C3323       C  0.91379669  0.41198453  0.96210517     0.61590
H3324       H  0.88324706  0.41809736  0.51325324     0.12290
H3325       H  0.82626709  0.31217175  0.96477844     0.12300
C3326       C  0.80028119  0.31687349  0.52138227     0.61830
F3327       F  0.92454137  0.44043653  0.97779781    -0.23340
F3328       F  0.91175617  0.41660332  0.92900416    -0.20670
F3329       F  0.93494089  0.40269354  0.96713854    -0.20350
F3330       F  0.77788349  0.32467284  0.52119175    -0.20400
F3331       F  0.80723534  0.31337694  0.55347495    -0.20720
F3332       F  0.78892265  0.28844744  0.50545788    -0.23390
C3333       C  0.87700805  0.36181399  0.71993775    -0.06230
C3334       C  0.84839103  0.35847812  0.71610160    -0.00300
C3335       C  0.82688200  0.34551195  0.74147440    -0.08880
C3336       C  0.83565691  0.33777167  0.77133284    -0.06250
C3337       C  0.86536483  0.34318681  0.77631810    -0.00320
C3338       C  0.88642186  0.35514532  0.74971320    -0.08780
C3339       C  0.91926885  0.36276167  0.75224521     0.61590
H3340       H  0.89288458  0.37225561  0.69992833     0.12290
H3341       H  0.81956651  0.32824340  0.79128127     0.12300
C3342       C  0.79489877  0.33968315  0.73653322     0.61830
F3343       F  0.93536498  0.37639135  0.72398236    -0.23340
F3344       F  0.92018543  0.33585364  0.75745394    -0.20670
F3345       F  0.93409659  0.38372646  0.77738193    -0.20350
F3346       F  0.78147738  0.31969728  0.71008100    -0.20400
F3347       F  0.79557641  0.36728218  0.73009296    -0.20720
F3348       F  0.77710734  0.32640255  0.76400134    -0.23390
O3349       O  0.92949908  0.90095229  0.33544151    -0.80590
O3350       O  0.95657605  0.85002112  0.44038699    -0.80610
O3351       O  0.86480704  0.83334400  0.40777700    -0.80620
O3352       O  0.99341174  0.88783127  0.38195682    -0.80560
O3353       O  0.90369028  0.84780512  0.44117744    -0.80680
O3354       O  0.98317714  0.90297304  0.33668360    -0.80600
O3355       O  0.98443145  0.83764912  0.41075587    -0.80590
O3356       O  0.89793919  0.88202634  0.37494864    -0.80630
C3357       C  0.91232268  0.90383798  0.35534815     1.09100
C3358       C  0.97929944  0.84650479  0.43816710     1.08990
C3359       C  0.87860663  0.84584128  0.43487346     1.09120
C3360       C  0.00079302  0.90859968  0.36093891     1.09000
O3361       O  0.95524000  0.83890383  0.31183719    -0.80590
O3362       O  0.87386422  0.78599170  0.41147261    -0.80670
O3363       O  0.85835710  0.83570685  0.33529443    -0.80600
O3364       O  0.94217413  0.79863906  0.35970038    -0.80580
O3365       O  0.93024316  0.78915209  0.41137664    -0.80630
O3366       O  0.89768449  0.83533822  0.31384714    -0.80600
O3367       O  0.99604587  0.84642662  0.33944546    -0.80560
O3368       O  0.87334017  0.79356364  0.35887986    -0.80630
Co3369     Co  0.94018107  0.86725607  0.33014940     1.51530
Co3370     Co  0.91693806  0.82015071  0.42282209     1.51690
Co3371     Co  0.88883704  0.83889192  0.36591313     1.51570
Co3372     Co  0.96579885  0.84411458  0.36904555     1.51470
O3373       O  0.92988287  0.84775438  0.38095839    -1.42520
C3374       C  0.98202265  0.84218426  0.31198255     1.09030
C3375       C  0.86164691  0.77616817  0.38336769     1.09120
C3376       C  0.87416516  0.83827066  0.30985215     1.09060
C3377       C  0.93736957  0.78153186  0.38443570     1.09030
O3378       O  0.95769179  0.61612552  0.31778443    -0.80590
O3379       O  0.93735100  0.54671277  0.36919210    -0.80610
O3380       O  0.49008512  0.60839085  0.38436877    -0.80620
O3381       O  0.86164777  0.54215477  0.34087590    -0.80560
O3382       O  0.97485533  0.57256092  0.42231433    -0.80680
O3383       O  0.90369380  0.56614886  0.31291475    -0.80600
O3384       O  0.88889849  0.52046514  0.38173232    -0.80590
O3385       O  0.98292948  0.65468698  0.35098108    -0.80630
C3386       C  0.97871897  0.64357656  0.32180102     1.09100
C3387       C  0.91237947  0.52114817  0.36963352     1.08990
C3388       C  0.49571363  0.59138626  0.40431123     1.09120
C3389       C  0.87669005  0.54472949  0.31530577     1.09000
O3390       O  0.87497650  0.59990990  0.33871959    -0.80590
O3391       O  0.95659623  0.61180460  0.44163080    -0.80670
O3392       O  0.93956252  0.65008736  0.39939149    -0.80600
O3393       O  0.88518126  0.55989006  0.43527313    -0.80580
O3394       O  0.91897578  0.54618551  0.43396712    -0.80630
O3395       O  0.93078595  0.65145725  0.34644561    -0.80600
O3396       O  0.86381674  0.58394606  0.38986155    -0.80560
O3397       O  0.99294654  0.65540970  0.41982592    -0.80630
Co3398     Co  0.91721172  0.60725416  0.33128519     1.51530
Co3399     Co  0.94581928  0.57930599  0.40271522     1.51690
Co3400     Co  0.96138676  0.62719877  0.39146606     1.51570
Co3401     Co  0.87805453  0.55451787  0.38688073     1.51470
O3402       O  0.92075018  0.59102126  0.37557478    -1.42520
C3403       C  0.85913873  0.59541514  0.36454415     1.09030
C3404       C  0.98035958  0.63944877  0.44537940     1.09120
C3405       C  0.93470510  0.66312602  0.37530240     1.09060
C3406       C  0.89668711  0.54518174  0.44799787     1.09030
O3407       O  0.52571462  0.90299214  0.11913567    -0.80590
O3408       O  0.65667090  0.98367975  0.09166571    -0.80610
O3409       O  0.57569063  0.97074634  0.11606723    -0.80620
O3410       O  0.56526243  0.90525377  0.05939602    -0.80560
O3411       O  0.62274589  0.99634383  0.13508981    -0.80680
O3412       O  0.54002592  0.86418845  0.08929139    -0.80600
O3413       O  0.61760707  0.95736994  0.05870813    -0.80590
O3414       O  0.52958300  0.93432034  0.15921956    -0.80630
C3415       C  0.51353019  0.91561228  0.13635991     1.09100
C3416       C  0.64347764  0.98055391  0.06421650     1.08990
C3417       C  0.59888398  0.99632179  0.12426966     1.09120
C3418       C  0.54359075  0.87807001  0.06210171     1.09000
O3419       O  0.58146147  0.86937323  0.14085562    -0.80590
O3420       O  0.62557604  0.95197715  0.18088200    -0.80670
O3421       O  0.55727086  0.90251252  0.18131608    -0.80600
O3422       O  0.64934290  0.92624254  0.08291696    -0.80580
O3423       O  0.65730936  0.93863980  0.13536797    -0.80630
O3424       O  0.52515276  0.85812098  0.15795899    -0.80600
O3425       O  0.59401567  0.87175358  0.08837043    -0.80560
O3426       O  0.59081452  0.96477560  0.18220328    -0.80630
Co3427     Co  0.55724001  0.88924395  0.13163593     1.51530
Co3428     Co  0.63777305  0.96493624  0.13531925     1.51690
Co3429     Co  0.56649906  0.93533980  0.14498038     1.51570
Co3430     Co  0.60562886  0.91589035  0.07492433     1.51470
O3431       O  0.59691156  0.92851611  0.11923350    -1.42520
C3432       C  0.58843921  0.85840940  0.11647710     1.09030
C3433       C  0.61371731  0.96532252  0.19569802     1.09120
C3434       C  0.53639914  0.87384276  0.18423161     1.09060
C3435       C  0.66489498  0.93038232  0.10913695     1.09030
O3436       O  0.68652922  0.65858297  0.35203064    -0.80590
O3437       O  0.64340737  0.52116074  0.38432743    -0.80610
O3438       O  0.66925413  0.56923062  0.30737413    -0.80620
O3439       O  0.61343272  0.57664766  0.42401817    -0.80560
O3440       O  0.68295065  0.53997578  0.33396060    -0.80680
O3441       O  0.63431968  0.61264488  0.38589905    -0.80600
O3442       O  0.62094464  0.54740500  0.37208769    -0.80590
O3443       O  0.66935157  0.61955578  0.31913089    -0.80630
C3444       C  0.67807308  0.64753106  0.32316341     1.09100
C3445       C  0.61998558  0.52147397  0.37401212     1.08990
C3446       C  0.66753786  0.54351686  0.31119786     1.09120
C3447       C  0.61157806  0.59569944  0.40507278     1.09000
O3448       O  0.68005541  0.65869028  0.42162170    -0.80590
O3449       O  0.73078333  0.58309784  0.37954579    -0.80670
O3450       O  0.73326799  0.65090238  0.34263586    -0.80600
O3451       O  0.64630658  0.55053320  0.43579499    -0.80580
O3452       O  0.69330956  0.56341610  0.42953315    -0.80630
O3453       O  0.72619703  0.65164579  0.39632324    -0.80600
O3454       O  0.67213149  0.61332749  0.43992559    -0.80560
O3455       O  0.73255797  0.59655350  0.32800137    -0.80630
Co3456     Co  0.68142825  0.62998781  0.39113679     1.51530
Co3457     Co  0.68774697  0.55464387  0.38161420     1.51690
Co3458     Co  0.69978885  0.60802448  0.32693364     1.51570
Co3459     Co  0.64774453  0.58119368  0.40278424     1.51470
O3460       O  0.68246257  0.59216638  0.37260105    -1.42520
C3461       C  0.67500763  0.64029583  0.44555367     1.09030
C3462       C  0.74531498  0.59324648  0.35337676     1.09120
C3463       C  0.74257749  0.66332349  0.37108302     1.09060
C3464       C  0.66985499  0.55122508  0.44676683     1.09030
O3465       O  0.53962857  0.62363440  0.17394546    -0.80590
O3466       O  0.61615565  0.66635203  0.07228477    -0.80610
O3467       O  0.53001612  0.68247319  0.09987777    -0.80620
O3468       O  0.60033033  0.62933995  0.12017043    -0.80560
O3469       O  0.56215819  0.67213815  0.07430808    -0.80680
O3470       O  0.59247947  0.62059009  0.17232888    -0.80600
O3471       O  0.65662389  0.67127864  0.09933104    -0.80590
O3472       O  0.53599548  0.63347965  0.12212995    -0.80630
C3473       C  0.52549478  0.61563844  0.14659117     1.09100
C3474       C  0.64125977  0.66563959  0.07257457     1.08990
C3475       C  0.54017834  0.67798175  0.07286702     1.09120
C3476       C  0.59591515  0.61182474  0.14411904     1.09000
O3477       O  0.62401818  0.68416023  0.20117212    -0.80590
O3478       O  0.60164476  0.73601902  0.09767870    -0.80670
O3479       O  0.53400092  0.67371965  0.17304977    -0.80600
O3480       O  0.65923765  0.71641916  0.14153555    -0.80580
O3481       O  0.65007290  0.72912445  0.09458596    -0.80630
O3482       O  0.57299514  0.68518143  0.20430800    -0.80600
O3483       O  0.64612202  0.66551313  0.17149595    -0.80560
O3484       O  0.57546565  0.72320165  0.14224901    -0.80630
Co3485     Co  0.58316212  0.65522052  0.18491273     1.51530
Co3486     Co  0.60594112  0.69845459  0.09095228     1.51690
Co3487     Co  0.55777034  0.67917651  0.13059894     1.51570
Co3488     Co  0.62889070  0.67394378  0.12939655     1.51470
O3489       O  0.59623833  0.68124186  0.14262748    -1.42520
C3490       C  0.64200356  0.67411392  0.19964442     1.09030
C3491       C  0.59080867  0.74340329  0.12142728     1.09120
C3492       C  0.54674097  0.68118121  0.20149959     1.09060
C3493       C  0.66794996  0.73513876  0.11847756     1.09030
O3494       O  0.89778578  0.91556145  0.14775732    -0.80590
O3495       O  0.85945454  0.94944785  0.06911080    -0.80610
O3496       O  0.85076738  0.88544659  0.07713840    -0.80620
O3497       O  0.88395120  0.99935879  0.14831363    -0.80560
O3498       O  0.81679848  0.89104457  0.04831656    -0.80680
O3499       O  0.90922975  0.97413839  0.14404159    -0.80600
O3500       O  0.84636911  0.98071072  0.09277841    -0.80590
O3501       O  0.87143768  0.89199765  0.10272748    -0.80630
C3502       C  0.89552583  0.90215883  0.12072936     1.09100
C3503       C  0.85809422  0.97421114  0.06878347     1.08990
C3504       C  0.83648622  0.88249883  0.04927710     1.09120
C3505       C  0.90923232  0.99933078  0.14604273     1.09000
O3506       O  0.87359821  0.96520918  0.20004152    -0.80590
O3507       O  0.78856316  0.87364663  0.10888161    -0.80670
O3508       O  0.84419853  0.86776043  0.15950064    -0.80600
O3509       O  0.79479761  0.93813473  0.13294993    -0.80580
O3510       O  0.79552238  0.92672735  0.08161930    -0.80630
O3511       O  0.85095425  0.90319986  0.19550470    -0.80600
O3512       O  0.82831123  0.95449631  0.18584485    -0.80560
O3513       O  0.80802815  0.84308923  0.11145885    -0.80630
Co3514     Co  0.88018801  0.93848733  0.16877772     1.51530
Co3515     Co  0.82652719  0.91244483  0.09023048     1.51690
Co3516     Co  0.83189903  0.88587413  0.12271929     1.51570
Co3517     Co  0.83880473  0.96599452  0.13961828     1.51470
O3518       O  0.84803692  0.93108779  0.13371373    -1.42520
C3519       C  0.84915962  0.96432175  0.20672614     1.09030
C3520       C  0.78486403  0.84614628  0.11063573     1.09120
C3521       C  0.84563431  0.87623449  0.18908190     1.09060
C3522       C  0.78159879  0.93081487  0.10534232     1.09030
C3523       C  0.94049153  0.55667988  0.13948258    -0.06230
C3524       C  0.93950271  0.52880896  0.14722178    -0.00300
C3525       C  0.96743146  0.52996862  0.15607727    -0.08880
C3526       C  0.99485122  0.55876169  0.15507280    -0.06250
C3527       C  0.99577010  0.58600705  0.14471114    -0.00320
C3528       C  0.96806225  0.58485000  0.13654636    -0.08780
C3529       C  0.96757008  0.61275157  0.12299689     0.61590
H3530       H  0.91939373  0.55625249  0.13521878     0.12290
H3531       H  0.51614407  0.56026542  0.16201066     0.12300
C3532       C  0.96891867  0.50167101  0.16784958     0.61830
F3533       F  0.93842681  0.60687013  0.11625250    -0.23340
F3534       F  0.98337104  0.62044243  0.09398406    -0.20670
F3535       F  0.98094144  0.63728964  0.14500121    -0.20350
F3536       F  0.96230692  0.98099786  0.14204491    -0.20400
F3537       F  0.94856290  0.98728251  0.19315905    -0.20720
F3538       F  0.49751078  0.50959327  0.17973860    -0.23390
C3539       C  0.70331097  0.78554776  0.09413240    -0.06230
C3540       C  0.69854491  0.76312725  0.11790104    -0.00300
C3541       C  0.72306893  0.76781087  0.13876691    -0.08880
C3542       C  0.75109974  0.79527406  0.13505573    -0.06250
C3543       C  0.75459940  0.81864556  0.11321180    -0.00320
C3544       C  0.72998892  0.81430101  0.09317653    -0.08780
C3545       C  0.73095504  0.83995753  0.07204919     0.61590
H3546       H  0.68557351  0.78072757  0.07650491     0.12290
H3547       H  0.77052952  0.79908604  0.14973773     0.12300
C3548       C  0.72045133  0.74402229  0.16399422     0.61830
F3549       F  0.70520514  0.82956183  0.05251427    -0.23340
F3550       F  0.75563900  0.85230839  0.05152494    -0.20670
F3551       F  0.73287670  0.86307811  0.09247541    -0.20350
F3552       F  0.71090799  0.71565690  0.14866807    -0.20400
F3553       F  0.69999566  0.74080882  0.18806813    -0.20720
F3554       F  0.74795232  0.75281307  0.17950223    -0.23390
C3555       C  0.65021908  0.66603465  0.29094226    -0.06230
C3556       C  0.67678018  0.66481003  0.29388344    -0.00300
C3557       C  0.69346348  0.66781772  0.26450082    -0.08880
C3558       C  0.68273994  0.67273606  0.23400129    -0.06250
C3559       C  0.65363496  0.66906822  0.23137438    -0.00320
C3560       C  0.63585827  0.66175413  0.26037148    -0.08780
C3561       C  0.60123154  0.64401737  0.26095113     0.61590
H3562       H  0.63770006  0.66404588  0.31283765     0.12290
H3563       H  0.69598010  0.67738437  0.21178845     0.12300
C3564       C  0.72180050  0.66497462  0.26488785     0.61830
F3565       F  0.59122982  0.61690421  0.27848743    -0.23340
F3566       F  0.58776227  0.63472633  0.23064998    -0.20670
F3567       F  0.59076867  0.66170094  0.27580278    -0.20350
F3568       F  0.71460125  0.63541420  0.27441776    -0.20400
F3569       F  0.74308999  0.68652309  0.28643279    -0.20720
F3570       F  0.73495838  0.67018798  0.23408780    -0.23390
C3571       C  0.64017944  0.62629378  0.49179933    -0.06230
C3572       C  0.66878344  0.64728316  0.47911962    -0.00300
C3573       C  0.68949534  0.67307359  0.49848399    -0.08880
C3574       C  0.68029103  0.67733624  0.02994119    -0.06250
C3575       C  0.65092260  0.65702603  0.04183363    -0.00320
C3576       C  0.63056406  0.63081222  0.02252409    -0.08780
C3577       C  0.59898808  0.60712959  0.03426925     0.61590
H3578       H  0.62479662  0.60653644  0.47682789     0.12290
H3579       H  0.69551178  0.69733909  0.04489516     0.12300
C3580       C  0.72100671  0.69563323  0.48603312     0.61830
F3581       F  0.58507898  0.58127940  0.01377931    -0.23340
F3582       F  0.58057730  0.62017682  0.03520122    -0.20670
F3583       F  0.60110809  0.59701195  0.06523288    -0.20350
F3584       F  0.71883552  0.71102541  0.45877424    -0.20400
F3585       F  0.73563564  0.67956977  0.47738738    -0.20720
F3586       F  0.73851573  0.71764216  0.00969750    -0.23390
C3587       C  0.65391105  0.98651036  0.50577817    -0.06230
C3588       C  0.65845827  0.00150827  0.03618167    -0.00300
C3589       C  0.67250625  0.53438334  0.03733428    -0.08880
C3590       C  0.67720514  0.55055386  0.00736726    -0.06250
C3591       C  0.66877424  0.53454650  0.47711076    -0.00320
C3592       C  0.65844592  0.00232628  0.47620738    -0.08780
C3593       C  0.64902685  0.98379650  0.44451441     0.61590
H3594       H  0.64431334  0.96148646  0.50542043     0.12290
H3595       H  0.68622924  0.57547377  0.00739967     0.12300
C3596       C  0.68140513  0.55196914  0.06968374     0.61830
F3597       F  0.64324124  0.95367613  0.44894293    -0.23340
F3598       F  0.67178564  0.99773554  0.42142672    -0.20670
F3599       F  0.62266401  0.98229961  0.43324235    -0.20350
F3600       F  0.70126192  0.54557523  0.08670293    -0.20400
F3601       F  0.65579494  0.54294251  0.08818001    -0.20720
F3602       F  0.69553128  0.58382416  0.06517606    -0.23390
C3603       C  0.66510530  0.50491580  0.27162606    -0.06230
C3604       C  0.65035184  0.51937950  0.28572388    -0.00300
C3605       C  0.62247443  0.51418157  0.27121774    -0.08880
C3606       C  0.61130359  0.99547103  0.24293726    -0.06250
C3607       C  0.62686465  0.98245052  0.22753924    -0.00320
C3608       C  0.65459880  0.48748830  0.24217923    -0.08780
C3609       C  0.67443321  0.47667995  0.22605446     0.61590
H3610       H  0.68642423  0.50945256  0.28259596     0.12290
H3611       H  0.59013287  0.99169828  0.23217418     0.12300
C3612       C  0.60268540  0.52704712  0.28323613     0.61830
F3613       F  0.70102117  0.48560987  0.24364718    -0.23340
F3614       F  0.68251459  0.48978705  0.19507994    -0.20670
F3615       F  0.65879872  0.94456174  0.22383720    -0.20350
F3616       F  0.61373407  0.54580296  0.31053602    -0.20400
F3617       F  0.57420733  0.50247117  0.29076254    -0.20720
F3618       F  0.59953025  0.04425014  0.25836827    -0.23390
C3619       C  0.62243880  0.55190819  0.14129017    -0.06230
C3620       C  0.59755329  0.52613532  0.12625501    -0.00300
C3621       C  0.57210141  0.52941086  0.11696751    -0.08880
C3622       C  0.57261886  0.55763000  0.12346741    -0.06250
C3623       C  0.59717485  0.58267599  0.13926142    -0.00320
C3624       C  0.62294925  0.57999948  0.14764187    -0.08780
C3625       C  0.65127266  0.60654974  0.16303551     0.61590
H3626       H  0.64176768  0.54982780  0.14877963     0.12290
H3627       H  0.55335809  0.56025152  0.11689860     0.12300
C3628       C  0.54310904  0.50277275  0.10335992     0.61830
F3629       F  0.67368773  0.59906480  0.16887557    -0.23340
F3630       F  0.64393231  0.61420424  0.19289615    -0.20670
F3631       F  0.66323349  0.63162723  0.14199286    -0.20350
F3632       F  0.53007180  0.98148652  0.12828584    -0.20400
F3633       F  0.54897981  0.98972430  0.07627983    -0.20720
F3634       F  0.52249140  0.51170781  0.09356106    -0.23390
C3635       C  0.61669403  0.83011368  0.11642094    -0.06230
C3636       C  0.58883632  0.82894926  0.12010666    -0.00300
C3637       C  0.56211817  0.79964258  0.12527098    -0.08880
C3638       C  0.56456979  0.77286205  0.12718187    -0.06250
C3639       C  0.59214866  0.77385429  0.12252873    -0.00320
C3640       C  0.61873386  0.80289993  0.11722526    -0.08780
C3641       C  0.64873735  0.80499772  0.11092865     0.61590
H3642       H  0.63674438  0.85249339  0.11195652     0.12290
H3643       H  0.54447517  0.75038451  0.13102516     0.12300
C3644       C  0.53080897  0.79582531  0.12789469     0.61830
F3645       F  0.67247552  0.83547272  0.11123459    -0.23340
F3646       F  0.64714666  0.79229204  0.08021975    -0.20670
F3647       F  0.65454054  0.78886643  0.13488741    -0.20350
F3648       F  0.52472380  0.80819781  0.10052405    -0.20400
F3649       F  0.52955313  0.81039414  0.15616985    -0.20720
F3650       F  0.50809681  0.76491751  0.12966257    -0.23390
C3651       C  0.73494076  0.92303913  0.13352798    -0.06230
C3652       C  0.74999148  0.92704987  0.10334385    -0.00300
C3653       C  0.73514841  0.92905782  0.07440716    -0.08880
C3654       C  0.70710249  0.92891841  0.07731382    -0.06250
C3655       C  0.69326462  0.92721049  0.10806684    -0.00320
C3656       C  0.70749738  0.92339046  0.13662267    -0.08780
C3657       C  0.69525764  0.92153303  0.17095847     0.61590
H3658       H  0.74559695  0.92062051  0.15559626     0.12290
H3659       H  0.69625732  0.93124859  0.05534293     0.12300
C3660       C  0.74900174  0.93204554  0.04072034     0.61830
F3661       F  0.71016792  0.91380164  0.19447226    -0.23340
F3662       F  0.66472885  0.89932078  0.17207935    -0.20670
F3663       F  0.69960853  0.95037292  0.17922024    -0.20350
F3664       F  0.75172165  0.90623362  0.03429178    -0.20400
F3665       F  0.77739918  0.95852692  0.03979544    -0.20720
F3666       F  0.73129870  0.93412436  0.01591414    -0.23390
C3667       C  0.97691138  0.92653244  0.10459315    -0.06230
C3668       C  0.98166687  0.90881803  0.12842230    -0.00300
C3669       C  0.95556010  0.88286424  0.14177518    -0.08880
C3670       C  0.92637841  0.87841797  0.13464533    -0.06250
C3671       C  0.92204194  0.89821014  0.11346046    -0.00320
C3672       C  0.94765002  0.92167577  0.09689986    -0.08780
C3673       C  0.94370835  0.94077966  0.07042401     0.61590
H3674       H  0.49612986  0.94370383  0.09114303     0.12290
H3675       H  0.90666922  0.86027561  0.14701822     0.12300
C3676       C  0.95849279  0.85951930  0.16286988     0.61830
F3677       F  0.97114762  0.96234831  0.05679260    -0.23340
F3678       F  0.93001292  0.95653455  0.08300522    -0.20670
F3679       F  0.92562711  0.92089622  0.04570147    -0.20350
F3680       F  0.97794083  0.87465553  0.18905096    -0.20400
F3681       F  0.96982868  0.84464392  0.14389835    -0.20720
F3682       F  0.93080812  0.83702157  0.17520375    -0.23390
C3683       C  0.52572671  0.67190700  0.48013041    -0.06230
C3684       C  0.99400218  0.65262521  0.47856841    -0.00300
C3685       C  0.97731922  0.64670695  0.00821252    -0.08880
C3686       C  0.49311398  0.65970474  0.03814670    -0.06250
C3687       C  0.52490840  0.67454198  0.04014856    -0.00320
C3688       C  0.54155234  0.68266055  0.01026492    -0.08780
C3689       C  0.57595969  0.70301510  0.50966610     0.61590
H3690       H  0.53848029  0.67703120  0.45750090     0.12290
H3691       H  0.98056791  0.65636690  0.06053928     0.12300
C3692       C  0.94344955  0.62465122  0.00909186     0.61830
F3693       F  0.58616540  0.71520889  0.47865299    -0.23340
F3694       F  0.58939950  0.68578289  0.01827304    -0.20670
F3695       F  0.58530083  0.72776539  0.03128846    -0.20350
F3696       F  0.93808372  0.59495425  0.00323716    -0.20400
F3697       F  0.92892510  0.63242826  0.48539264    -0.20720
F3698       F  0.93123724  0.62499417  0.03935799    -0.23390
C3699       C  0.52787646  0.68008637  0.29294650    -0.06230
C3700       C  0.99604184  0.66156808  0.29183370    -0.00300
C3701       C  0.98141823  0.65853224  0.26063573    -0.08880
C3702       C  0.99871500  0.66637602  0.23158642    -0.06250
C3703       C  0.53037222  0.68097790  0.23243093    -0.00320
C3704       C  0.54511662  0.69213293  0.26372750    -0.08780
C3705       C  0.57728472  0.71987197  0.26641769     0.61590
H3706       H  0.53920460  0.68525407  0.31674212     0.12290
H3707       H  0.98730554  0.66143739  0.20784655     0.12300
C3708       C  0.94965740  0.65375274  0.25670985     0.61830
F3709       F  0.58433878  0.73094825  0.29849461    -0.23340
F3710       F  0.57942517  0.74366538  0.24691612    -0.20670
F3711       F  0.59887947  0.71271272  0.25644611    -0.20350
F3712       F  0.95208397  0.68254743  0.25279968    -0.20400
F3713       F  0.93127634  0.63949345  0.28322124    -0.20720
F3714       F  0.93560349  0.63616274  0.22881089    -0.23390
C3715       C  0.87900429  0.53947933  0.00573058    -0.06230
C3716       C  0.88405001  0.52607197  0.47794308    -0.00300
C3717       C  0.87765291  0.99486666  0.47947191    -0.08880
C3718       C  0.87013139  0.97959017  0.50973448    -0.06250
C3719       C  0.86724034  0.99360871  0.03843139    -0.00320
C3720       C  0.87097964  0.52401051  0.03623928    -0.08780
C3721       C  0.86735345  0.54067828  0.06564525     0.61590
H3722       H  0.88193765  0.56251855  0.00342863     0.12290
H3723       H  0.86562036  0.95590970  0.51083103     0.12300
C3724       C  0.87571033  0.97657959  0.44881387     0.61830
F3725       F  0.87574566  0.57119684  0.05867953    -0.23340
F3726       F  0.88564223  0.54120318  0.09105238    -0.20670
F3727       F  0.83738856  0.52558212  0.07554080    -0.20350
F3728       F  0.90413061  0.98831550  0.43517378    -0.20400
F3729       F  0.85591510  0.97858173  0.42686365    -0.20720
F3730       F  0.86458470  0.94533239  0.45510422    -0.23390
C3731       C  0.85836870  0.51311122  0.22897585    -0.06230
C3732       C  0.84830868  0.98185559  0.23492412    -0.00300
C3733       C  0.84265929  0.97012209  0.26727709    -0.08880
C3734       C  0.84966235  0.49118546  0.29352437    -0.06250
C3735       C  0.86297540  0.52316906  0.28757295    -0.00320
C3736       C  0.86631150  0.53427686  0.25486714    -0.08780
C3737       C  0.88167973  0.56858332  0.24689751     0.61590
H3738       H  0.86262515  0.52133040  0.20376583     0.12290
H3739       H  0.84693855  0.98319277  0.31874947     0.12300
C3740       C  0.82974188  0.93580585  0.27363073     0.61830
F3741       F  0.87645691  0.57357095  0.21454498    -0.23340
F3742       F  0.91260554  0.58127806  0.25142137    -0.20670
F3743       F  0.87106621  0.58345374  0.26708406    -0.20350
F3744       F  0.84943607  0.92644306  0.26214838    -0.20400
F3745       F  0.80211051  0.91927256  0.25739832    -0.20720
F3746       F  0.82510197  0.92897701  0.30685581    -0.23390
C3747       C  0.54686104  0.61061835  0.38229443    -0.06230
C3748       C  0.52534310  0.59268818  0.40581336    -0.00300
C3749       C  0.53302877  0.57737510  0.43062472    -0.08880
C3750       C  0.56140364  0.57935183  0.42910866    -0.06250
C3751       C  0.58273036  0.59656528  0.40481130    -0.00320
C3752       C  0.57559883  0.61329685  0.38178344    -0.08780
C3753       C  0.59778304  0.63340573  0.35628099     0.61770
H3754       H  0.54092698  0.62260766  0.36409004     0.12290
H3755       H  0.56710320  0.56719254  0.44728558     0.12300
C3756       C  0.51221167  0.55929306  0.45912474     0.61830
F3757       F  0.58604101  0.64740718  0.33636296    -0.23340
F3758       F  0.60471475  0.61491952  0.33695474    -0.20670
F3759       F  0.62367079  0.65676184  0.37153262    -0.20350
F3760       F  0.48640291  0.53322345  0.44724932    -0.20400
F3761       F  0.50430899  0.57819318  0.47641134    -0.20720
F3762       F  0.52600798  0.54905615  0.48135179    -0.23390
C3763       C  0.82046119  0.59888544  0.33126220    -0.06230
C3764       C  0.83243502  0.59991552  0.36313857    -0.00300
C3765       C  0.81645066  0.60180804  0.39117018    -0.08880
C3766       C  0.79027803  0.60352410  0.38526990    -0.06250
C3767       C  0.77697779  0.59949137  0.35388644    -0.00320
C3768       C  0.79228539  0.59712317  0.32616125    -0.08780
C3769       C  0.77832593  0.59071593  0.29177358     0.61590
H3770       H  0.83225319  0.59706480  0.31005698     0.12290
H3771       H  0.77866496  0.60594122  0.40641532     0.12300
C3772       C  0.82293373  0.60078542  0.42807741     0.61830
F3773       F  0.79652634  0.58751428  0.26873550    -0.23340
F3774       F  0.77427415  0.61503471  0.28200490    -0.20670
F3775       F  0.75058776  0.56331710  0.29170636    -0.20350
F3776       F  0.82419522  0.62622998  0.44368537    -0.20400
F3777       F  0.84926351  0.60101680  0.43638699    -0.20720
F3778       F  0.79908837  0.57412434  0.44130946    -0.23390
C3779       C  0.99586436  0.87433303  0.49032401    -0.06230
C3780       C  0.99837673  0.85385412  0.46847757    -0.00300
C3781       C  0.51407669  0.83848382  0.47906364    -0.08880
C3782       C  0.52718890  0.84499109  0.51121189    -0.06250
C3783       C  0.52323352  0.86467373  0.03314592    -0.00320
C3784       C  0.50628327  0.87845058  0.02266548    -0.08780
C3785       C  0.49753841  0.89597460  0.04631322     0.61590
H3786       H  0.98431382  0.88648818  0.48224882     0.12290
H3787       H  0.54109622  0.83535219  0.51917942     0.12300
C3788       C  0.51687977  0.81555291  0.45685395     0.61830
F3789       F  0.47831601  0.90494485  0.03211325    -0.23340
F3790       F  0.52318929  0.92245587  0.05755295    -0.20670
F3791       F  0.48231897  0.87631778  0.07209430    -0.20350
F3792       F  0.53253216  0.83051482  0.42873426    -0.20400
F3793       F  0.98826339  0.79156834  0.44816958    -0.20720
F3794       F  0.53238414  0.80274753  0.47224099    -0.23390
C3795       C  0.99694219  0.83351529  0.22101492    -0.06230
C3796       C  0.52569736  0.86027411  0.21794206    -0.00300
C3797       C  0.54196913  0.87503942  0.24746875    -0.08880
C3798       C  0.52717490  0.86587177  0.27785624    -0.06250
C3799       C  0.99680269  0.84252956  0.28029616    -0.00320
C3800       C  0.98181348  0.82446776  0.25156121    -0.08780
C3801       C  0.95094347  0.79485249  0.25104534     0.61590
H3802       H  0.98514895  0.82064176  0.19895958     0.12290
H3803       H  0.53861636  0.87922972  0.29982539     0.12300
C3804       C  0.57317280  0.90347587  0.24761877     0.61830
F3805       F  0.93290402  0.79656930  0.22645055    -0.23340
F3806       F  0.93537871  0.78879918  0.28025732    -0.20670
F3807       F  0.95511286  0.76999608  0.24406861    -0.20350
F3808       F  0.56965177  0.92856640  0.24046139    -0.20400
F3809       F  0.59184174  0.90039306  0.22520563    -0.20720
F3810       F  0.58725899  0.90866358  0.27800537    -0.23390
C3811       C  0.93373767  0.96030010  0.34247628    -0.06230
C3812       C  0.90964835  0.93281805  0.35535635    -0.00300
C3813       C  0.88331769  0.93366062  0.36533536    -0.08880
C3814       C  0.88445152  0.96269378  0.36682380    -0.06250
C3815       C  0.91095392  0.99107684  0.35968133    -0.00320
C3816       C  0.93533384  0.98945577  0.34477827    -0.08780
C3817       C  0.96285427  0.51790002  0.33075262     0.61590
H3818       H  0.95169534  0.95882596  0.33071113     0.12290
H3819       H  0.86450255  0.96334957  0.37429839     0.12300
C3820       C  0.85346408  0.90418480  0.37239616     0.61830
F3821       F  0.98014392  0.50986769  0.31133220    -0.23340
F3822       F  0.98121442  0.53664929  0.35614007    -0.20670
F3823       F  0.95359496  0.53442668  0.31117004    -0.20350
F3824       F  0.85589836  0.89034548  0.40077809    -0.20400
F3825       F  0.84577643  0.88369883  0.34618120    -0.20720
F3826       F  0.82987866  0.91012859  0.37670297    -0.23390
C3827       C  0.95583734  0.71803883  0.35860090    -0.06230
C3828       C  0.93699464  0.69401971  0.37987750    -0.00300
C3829       C  0.92221997  0.70061376  0.40538124    -0.08880
C3830       C  0.92530624  0.73026567  0.40742287    -0.06250
C3831       C  0.94054799  0.75296612  0.38335075    -0.00320
C3832       C  0.95903135  0.74786288  0.36089708    -0.08780
C3833       C  0.98436795  0.77404603  0.34211990     0.61590
H3834       H  0.96861970  0.71341696  0.34044754     0.12290
H3835       H  0.91486970  0.73550795  0.42754806     0.12300
C3836       C  0.90051183  0.67544387  0.42791434     0.61830
F3837       F  0.50446192  0.76571501  0.32931319    -0.23340
F3838       F  0.00071070  0.79923709  0.36290688    -0.20670
F3839       F  0.97222996  0.78202706  0.31633929    -0.20350
F3840       F  0.91579214  0.66501325  0.44734375    -0.20400
F3841       F  0.87954464  0.65169972  0.40830748    -0.20720
F3842       F  0.88526642  0.68520433  0.44844317    -0.23390
C3843       C  0.55708473  0.93504650  0.36501004    -0.06230
C3844       C  0.53102156  0.93779792  0.36342472    -0.00300
C3845       C  0.53465162  0.96786354  0.36331873    -0.08880
C3846       C  0.56392765  0.99406880  0.36673682    -0.06250
C3847       C  0.59039881  0.99171364  0.36769711    -0.00320
C3848       C  0.58674196  0.96123921  0.36480469    -0.08780
C3849       C  0.61211235  0.95392954  0.35965855     0.61590
H3850       H  0.55420415  0.91188634  0.36427124     0.12290
H3851       H  0.56621448  0.51690278  0.36803886     0.12300
C3852       C  0.50785010  0.97228254  0.35771205     0.61830
F3853       F  0.60385429  0.93211255  0.33481714    -0.23340
F3854       F  0.61634609  0.94117445  0.38793507    -0.20670
F3855       F  0.63925854  0.97910740  0.35036040    -0.20350
F3856       F  0.98480293  0.95413119  0.37933696    -0.20400
F3857       F  0.99821507  0.96355171  0.32554072    -0.20720
F3858       F  0.51521721  0.00293381  0.36207220    -0.23390
C3859       C  0.79825973  0.69000384  0.38082096    -0.06230
C3860       C  0.77259878  0.69255120  0.37431284    -0.00300
C3861       C  0.77619633  0.72273870  0.37111281    -0.08880
C3862       C  0.80567819  0.74921329  0.37332559    -0.06250
C3863       C  0.83144791  0.74668362  0.37996005    -0.00320
C3864       C  0.82744251  0.71654972  0.38423756    -0.08780
C3865       C  0.85400878  0.71263490  0.39264293     0.61590
H3866       H  0.79515467  0.66691891  0.38360352     0.12290
H3867       H  0.80881362  0.77231440  0.37052969     0.12300
C3868       C  0.74908361  0.72717819  0.36596845     0.61830
F3869       F  0.84597770  0.68165979  0.39487546    -0.23340
F3870       F  0.86560812  0.72682703  0.42274363    -0.20670
F3871       F  0.87557125  0.72628643  0.36836119    -0.20350
F3872       F  0.72842701  0.71272930  0.39090876    -0.20400
F3873       F  0.73534745  0.71457129  0.33607424    -0.20720
F3874       F  0.75733697  0.75830655  0.36605705    -0.23390
C3875       C  0.87128917  0.89490272  0.00274702    -0.06230
C3876       C  0.84506968  0.87265495  0.01851382    -0.00300
C3877       C  0.82829194  0.84224221  0.00475742    -0.08880
C3878       C  0.83854680  0.83534135  0.47540818    -0.06250
C3879       C  0.86587424  0.85712911  0.46075405    -0.00320
C3880       C  0.88294926  0.88747564  0.47504071    -0.08780
C3881       C  0.91379675  0.91198457  0.46210514     0.61590
H3882       H  0.88324688  0.91809691  0.01325392     0.12290
H3883       H  0.82626713  0.81217183  0.46477881     0.12300
C3884       C  0.80028124  0.81687284  0.02138245     0.61830
F3885       F  0.92454141  0.94043667  0.47779754    -0.23340
F3886       F  0.91175627  0.91660314  0.42900407    -0.20670
F3887       F  0.93494095  0.90269361  0.46713875    -0.20350
F3888       F  0.77788348  0.82467211  0.02119200    -0.20400
F3889       F  0.80723534  0.81337614  0.05347510    -0.20720
F3890       F  0.78892280  0.78844689  0.00545788    -0.23390
C3891       C  0.87700762  0.86181289  0.21993820    -0.06230
C3892       C  0.84839059  0.85847704  0.21610211    -0.00300
C3893       C  0.82688158  0.84551083  0.24147492    -0.08880
C3894       C  0.83565654  0.83777060  0.27133335    -0.06250
C3895       C  0.86536447  0.84318579  0.27631858    -0.00320
C3896       C  0.88642146  0.85514421  0.24971363    -0.08780
C3897       C  0.91926841  0.86276042  0.25224555     0.61590
H3898       H  0.89288412  0.87225450  0.19992877     0.12290
H3899       H  0.81956617  0.82824235  0.29128182     0.12300
C3900       C  0.79489833  0.83968195  0.23653378     0.61830
F3901       F  0.93536452  0.87639013  0.22398270    -0.23340
F3902       F  0.92018487  0.83585230  0.25745415    -0.20670
F3903       F  0.93409626  0.88372516  0.27738229    -0.20350
F3904       F  0.78147700  0.81969622  0.21008145    -0.20400
F3905       F  0.79557590  0.86728098  0.23009373    -0.20720
F3906       F  0.77710688  0.82640116  0.26400184    -0.23390
O3907       O  0.92949898  0.90095270  0.83544140    -0.80590
O3908       O  0.95657614  0.85002150  0.94038682    -0.80610
O3909       O  0.86480707  0.83334421  0.90777682    -0.80620
O3910       O  0.99341169  0.88783217  0.88195683    -0.80560
O3911       O  0.90369026  0.84780516  0.94117730    -0.80680
O3912       O  0.98317719  0.90297382  0.83668349    -0.80600
O3913       O  0.98443185  0.83765001  0.91075559    -0.80590
O3914       O  0.89793930  0.88202675  0.87494871    -0.80630
C3915       C  0.91232264  0.90383836  0.85534815     1.09100
C3916       C  0.97929966  0.84650539  0.93816689     1.08990
C3917       C  0.87860660  0.84584131  0.93487335     1.09120
C3918       C  0.00079296  0.90860058  0.86093892     1.09000
O3919       O  0.95524045  0.83890472  0.81183691    -0.80590
O3920       O  0.87386448  0.78599192  0.91147212    -0.80670
O3921       O  0.85835728  0.83570742  0.83529423    -0.80600
O3922       O  0.94217495  0.79863993  0.85969992    -0.80580
O3923       O  0.93024363  0.78915264  0.91137608    -0.80630
O3924       O  0.89768467  0.83533878  0.81384695    -0.80600
O3925       O  0.99604642  0.84642786  0.83944532    -0.80560
O3926       O  0.87334033  0.79356415  0.85887944    -0.80630
Co3927     Co  0.94018121  0.86725668  0.83014923     1.51530
Co3928     Co  0.91693826  0.82015100  0.92282174     1.51690
Co3929     Co  0.88883717  0.83889239  0.86591296     1.51570
Co3930     Co  0.96579921  0.84411545  0.86904532     1.51470
O3931       O  0.92988301  0.84775483  0.88095817    -1.42520
C3932       C  0.98202314  0.84218520  0.81198240     1.09030
C3933       C  0.86164708  0.77616858  0.88336719     1.09120
C3934       C  0.87416535  0.83827125  0.80985196     1.09060
C3935       C  0.93737034  0.78153265  0.88443517     1.09030
O3936       O  0.95769261  0.61612545  0.81778542    -0.80590
O3937       O  0.93735107  0.54671294  0.86919311    -0.80610
O3938       O  0.49008484  0.60839004  0.88436924    -0.80620
O3939       O  0.86164824  0.54215510  0.84087570    -0.80560
O3940       O  0.97485510  0.57256104  0.92231572    -0.80680
O3941       O  0.90369507  0.56614910  0.81291613    -0.80600
O3942       O  0.88889842  0.52046523  0.88173269    -0.80590
O3943       O  0.98293045  0.65468712  0.85098160    -0.80630
C3944       C  0.97871984  0.64357650  0.82180162     1.09100
C3945       C  0.91237950  0.52114837  0.86963409     1.08990
C3946       C  0.49571320  0.59138541  0.90431179     1.09120
C3947       C  0.87669119  0.54472997  0.81530610     1.09000
O3948       O  0.87497721  0.59991037  0.83871972    -0.80590
O3949       O  0.95659575  0.61180468  0.94163162    -0.80670
O3950       O  0.93956377  0.65008836  0.89939157    -0.80600
O3951       O  0.88518034  0.55988948  0.93527344    -0.80580
O3952       O  0.91897529  0.54618545  0.93396797    -0.80630
O3953       O  0.93078687  0.65145776  0.84644569    -0.80600
O3954       O  0.86381642  0.58394589  0.88986147    -0.80560
O3955       O  0.99294693  0.65540925  0.91982673    -0.80630
Co3956     Co  0.91721252  0.60725444  0.83128583     1.51530
Co3957     Co  0.94581908  0.57930610  0.90271629     1.51690
Co3958     Co  0.96138722  0.62719888  0.89146650     1.51570
Co3959     Co  0.87805438  0.55451785  0.88688086     1.51470
O3960       O  0.92075027  0.59102157  0.87557561    -1.42520
C3961       C  0.85913901  0.59541540  0.86454402     1.09030
C3962       C  0.98035943  0.63944858  0.94538022     1.09120
C3963       C  0.93470639  0.66312692  0.87530232     1.09060
C3964       C  0.89668628  0.54518128  0.94799835     1.09030
O3965       O  0.52571468  0.90299227  0.61913562    -0.80590
O3966       O  0.65667102  0.98367995  0.59166593    -0.80610
O3967       O  0.57569076  0.97074666  0.61606714    -0.80620
O3968       O  0.56526258  0.90525391  0.55939600    -0.80560
O3969       O  0.62274597  0.99634408  0.63508989    -0.80680
O3970       O  0.54002617  0.86418863  0.58929144    -0.80600
O3971       O  0.61760716  0.95737022  0.55870836    -0.80590
O3972       O  0.52958299  0.93432067  0.65921929    -0.80630
C3973       C  0.51353025  0.91561251  0.63635968     1.09100
C3974       C  0.64347777  0.98055414  0.56421673     1.08990
C3975       C  0.59888411  0.99632209  0.62426964     1.09120
C3976       C  0.54359095  0.87807011  0.56210172     1.09000
O3977       O  0.58146171  0.86937362  0.64085578    -0.80590
O3978       O  0.62557588  0.95197731  0.68088210    -0.80670
O3979       O  0.55727066  0.90251278  0.68131608    -0.80600
O3980       O  0.64934308  0.92624292  0.58291718    -0.80580
O3981       O  0.65730938  0.93863997  0.63536824    -0.80630
O3982       O  0.52515288  0.85812111  0.65795889    -0.80600
O3983       O  0.59401594  0.87175393  0.58837060    -0.80560
O3984       O  0.59081441  0.96477584  0.68220327    -0.80630
Co3985     Co  0.55724013  0.88924418  0.63163597     1.51530
Co3986     Co  0.63777308  0.96493645  0.63531943     1.51690
Co3987     Co  0.56649905  0.93534009  0.64498031     1.51570
Co3988     Co  0.60562902  0.91589064  0.57492446     1.51470
O3989       O  0.59691161  0.92851636  0.61923358    -1.42520
C3990       C  0.58843953  0.85840983  0.61647730     1.09030
C3991       C  0.61371719  0.96532276  0.69569804     1.09120
C3992       C  0.53639917  0.87384291  0.68423152     1.09060
C3993       C  0.66489510  0.93038261  0.60913720     1.09030
O3994       O  0.68652910  0.65858324  0.85203067    -0.80590
O3995       O  0.64340770  0.52116104  0.88432719    -0.80610
O3996       O  0.66925430  0.56923105  0.80737397    -0.80620
O3997       O  0.61343312  0.57664765  0.92401821    -0.80560
O3998       O  0.68295086  0.53997615  0.83396021    -0.80680
O3999       O  0.63431953  0.61264458  0.88589876    -0.80600
O4000       O  0.62094515  0.54740546  0.87208750    -0.80590
O4001       O  0.66935165  0.61955606  0.81913097    -0.80630
C4002       C  0.67807304  0.64753132  0.82316345     1.09100
C4003       C  0.61998595  0.52147438  0.87401192     1.08990
C4004       C  0.66753800  0.54351727  0.81119760     1.09120
C4005       C  0.61157795  0.59569889  0.90507246     1.09000
O4006       O  0.68005496  0.65869022  0.92162174    -0.80590
O4007       O  0.73078374  0.58309796  0.87954525    -0.80670
O4008       O  0.73326813  0.65090275  0.84263579    -0.80600
O4009       O  0.64630713  0.55053344  0.93579482    -0.80580
O4010       O  0.69331006  0.56341620  0.92953284    -0.80630
O4011       O  0.72619705  0.65164645  0.89632315    -0.80600
O4012       O  0.67213180  0.61332773  0.93992563    -0.80560
O4013       O  0.73255829  0.59655402  0.82800094    -0.80630
Co4014     Co  0.68142822  0.62998802  0.89113670     1.51530
Co4015     Co  0.68774733  0.55464412  0.88161385     1.51690
Co4016     Co  0.69978905  0.60802489  0.82693350     1.51570
Co4017     Co  0.64774499  0.58119397  0.90278422     1.51470
O4018       O  0.68246303  0.59216679  0.87260099    -1.42520
C4019       C  0.67500746  0.64029586  0.94555374     1.09030
C4020       C  0.74531535  0.59324685  0.85337621     1.09120
C4021       C  0.74257755  0.66332399  0.87108290     1.09060
C4022       C  0.66985551  0.55122521  0.94676658     1.09030
O4023       O  0.53962906  0.62363502  0.67394462    -0.80590
O4024       O  0.61615628  0.66635273  0.57228436    -0.80610
O4025       O  0.53001676  0.68247398  0.59987702    -0.80620
O4026       O  0.60033087  0.62934049  0.62017010    -0.80560
O4027       O  0.56215885  0.67213921  0.57430692    -0.80680
O4028       O  0.59247986  0.62059066  0.67232854    -0.80600
O4029       O  0.65662444  0.67127922  0.59933082    -0.80590
O4030       O  0.53599618  0.63348040  0.62212907    -0.80630
C4031       C  0.52549542  0.61563912  0.64659023     1.09100
C4032       C  0.64126039  0.66564023  0.57257429     1.08990
C4033       C  0.54017889  0.67798267  0.57286612     1.09120
C4034       C  0.59591556  0.61182526  0.64411874     1.09000
O4035       O  0.62401851  0.68416080  0.70117179    -0.80590
O4036       O  0.60164542  0.73601977  0.59767830    -0.80670
O4037       O  0.53400122  0.67372000  0.67304921    -0.80600
O4038       O  0.65923814  0.71641970  0.64153532    -0.80580
O4039       O  0.65007349  0.72912503  0.59458569    -0.80630
O4040       O  0.57299554  0.68518206  0.70430730    -0.80600
O4041       O  0.64612240  0.66551364  0.67149581    -0.80560
O4042       O  0.57546620  0.72320222  0.64224857    -0.80630
Co4043     Co  0.58316252  0.65522112  0.68491218     1.51530
Co4044     Co  0.60594173  0.69845531  0.59095177     1.51690
Co4045     Co  0.55777087  0.67917717  0.63059833     1.51570
Co4046     Co  0.62889122  0.67394433  0.62939628     1.51470
O4047       O  0.59623880  0.68124243  0.64262692    -1.42520
C4048       C  0.64200383  0.67411441  0.69964425     1.09030
C4049       C  0.59080929  0.74340395  0.62142692     1.09120
C4050       C  0.54674121  0.68118142  0.70149909     1.09060
C4051       C  0.66795048  0.73513933  0.61847736     1.09030
O4052       O  0.89778615  0.91556187  0.64775686    -0.80590
O4053       O  0.85945487  0.94944843  0.56911073    -0.80610
O4054       O  0.85076761  0.88544716  0.57713813    -0.80620
O4055       O  0.88395176  0.99935933  0.64831321    -0.80560
O4056       O  0.81679872  0.89104522  0.54831637    -0.80680
O4057       O  0.90923020  0.97413883  0.64404083    -0.80600
O4058       O  0.84636942  0.98071131  0.59277827    -0.80590
O4059       O  0.87143791  0.89199813  0.60272709    -0.80630
C4060       C  0.89552609  0.90215923  0.62072890     1.09100
C4061       C  0.85809455  0.97421172  0.56878336     1.08990
C4062       C  0.83648642  0.88249942  0.54927687     1.09120
C4063       C  0.90923284  0.99933125  0.64604207     1.09000
O4064       O  0.87359908  0.96520995  0.70004103    -0.80590
O4065       O  0.78856350  0.87364727  0.60888149    -0.80670
O4066       O  0.84419885  0.86776103  0.65950041    -0.80600
O4067       O  0.79479803  0.93813546  0.63295000    -0.80580
O4068       O  0.79552269  0.92672800  0.58161935    -0.80630
O4069       O  0.85095495  0.90320064  0.69550445    -0.80600
O4070       O  0.82831198  0.95449700  0.68584480    -0.80560
O4071       O  0.80802847  0.84308985  0.61145866    -0.80630
Co4072     Co  0.88018860  0.93848794  0.66877724     1.51530
Co4073     Co  0.82652751  0.91244544  0.59023035     1.51690
Co4074     Co  0.83189936  0.88587472  0.62271907     1.51570
Co4075     Co  0.83880522  0.96599516  0.63961816     1.51470
O4076       O  0.84803730  0.93108836  0.63371353    -1.42520
C4077       C  0.84916054  0.96432249  0.70672590     1.09030
C4078       C  0.78486437  0.84614693  0.61063561     1.09120
C4079       C  0.84563475  0.87623518  0.68908166     1.09060
C4080       C  0.78159914  0.93081553  0.60534242     1.09030
C4081       C  0.94049226  0.55668061  0.63948130    -0.06230
C4082       C  0.93950343  0.52880964  0.64722022    -0.00300
C4083       C  0.96743215  0.52996921  0.65607561    -0.08880
C4084       C  0.99485192  0.55876227  0.65507137    -0.06250
C4085       C  0.99577079  0.58600770  0.64471005    -0.00320
C4086       C  0.96806297  0.58485074  0.63654538    -0.08780
C4087       C  0.96757085  0.61275239  0.62299618     0.61590
H4088       H  0.91939448  0.55625324  0.63521748     0.12290
H4089       H  0.51614477  0.56026598  0.66200911     0.12300
C4090       C  0.96891932  0.50167149  0.66784760     0.61830
F4091       F  0.93842763  0.60687099  0.61625154    -0.23340
F4092       F  0.98337207  0.62044349  0.59398356    -0.20670
F4093       F  0.98094200  0.63729024  0.64500078    -0.20350
F4094       F  0.96230737  0.98099825  0.64204393    -0.20400
F4095       F  0.94856345  0.98728282  0.69315816    -0.20720
F4096       F  0.49751143  0.50959365  0.67973648    -0.23390
C4097       C  0.70331142  0.78554836  0.59413225    -0.06230
C4098       C  0.69854538  0.76312786  0.61790091    -0.00300
C4099       C  0.72306938  0.76781156  0.63876686    -0.08880
C4100       C  0.75110014  0.79527479  0.63505571    -0.06250
C4101       C  0.75459977  0.81864624  0.61321174    -0.00320
C4102       C  0.72998931  0.81430164  0.59317642    -0.08780
C4103       C  0.73095539  0.83995816  0.57204910     0.61590
H4104       H  0.68557398  0.78072812  0.57650471     0.12290
H4105       H  0.77052993  0.79908682  0.64973774     0.12300
C4106       C  0.72045180  0.74402303  0.66399421     0.61830
F4107       F  0.70520551  0.82956243  0.55251415    -0.23340
F4108       F  0.75563936  0.85230908  0.55152487    -0.20670
F4109       F  0.73287700  0.86307872  0.59247531    -0.20350
F4110       F  0.71090861  0.71565765  0.64866808    -0.20400
F4111       F  0.69999603  0.74080946  0.68806804    -0.20720
F4112       F  0.74795278  0.75281392  0.67950233    -0.23390
C4113       C  0.65021868  0.66603455  0.79094239    -0.06230
C4114       C  0.67678003  0.66481022  0.79388346    -0.00300
C4115       C  0.69346350  0.66781817  0.76450096    -0.08880
C4116       C  0.68274007  0.67273656  0.73400135    -0.06250
C4117       C  0.65363503  0.66906863  0.73137433    -0.00320
C4118       C  0.63585820  0.66175439  0.76037131    -0.08780
C4119       C  0.60123147  0.64401787  0.76095085     0.61590
H4120       H  0.63770020  0.66404564  0.81283651     0.12290
H4121       H  0.69598026  0.67738498  0.71178874     0.12300
C4122       C  0.72180065  0.66497532  0.76488811     0.61830
F4123       F  0.59122950  0.61690454  0.77848691    -0.23340
F4124       F  0.58776225  0.63472718  0.73064963    -0.20670
F4125       F  0.59076880  0.66170153  0.77580273    -0.20350
F4126       F  0.71460154  0.63541490  0.77441786    -0.20400
F4127       F  0.74308993  0.68652376  0.78643326    -0.20720
F4128       F  0.73495875  0.67018895  0.73408815    -0.23390
C4129       C  0.64017891  0.62629367  0.99179917    -0.06230
C4130       C  0.66878304  0.64728302  0.97911969    -0.00300
C4131       C  0.68949491  0.67307325  0.99848431    -0.08880
C4132       C  0.68029157  0.67733676  0.52994084    -0.06250
C4133       C  0.65092322  0.65702655  0.54183347    -0.00320
C4134       C  0.63056470  0.63081252  0.52252420    -0.08780
C4135       C  0.59898884  0.60712989  0.53426960     0.61590
H4136       H  0.62479609  0.60653650  0.97682754     0.12290
H4137       H  0.69551232  0.69733976  0.54489463     0.12300
C4138       C  0.72100636  0.69563291  0.98603369     0.61830
F4139       F  0.58507987  0.58127944  0.51378005    -0.23340
F4140       F  0.58057789  0.62017695  0.53520125    -0.20670
F4141       F  0.60110905  0.59701270  0.56523339    -0.20350
F4142       F  0.71883535  0.71102519  0.95877479    -0.20400
F4143       F  0.73563531  0.67956944  0.97738805    -0.20720
F4144       F  0.73851621  0.71764256  0.50969681    -0.23390
C4145       C  0.65391086  0.98651028  0.00577788    -0.06230
C4146       C  0.65845843  0.00150842  0.53618190    -0.00300
C4147       C  0.67250615  0.53438343  0.53733453    -0.08880
C4148       C  0.67720481  0.55055387  0.50736749    -0.06250
C4149       C  0.66877471  0.53454656  0.97711047    -0.00320
C4150       C  0.65844589  0.00232631  0.97620712    -0.08780
C4151       C  0.64902683  0.98379662  0.94451407     0.61590
H4152       H  0.64431307  0.96148638  0.00542005     0.12290
H4153       H  0.68622889  0.57547379  0.50739986     0.12300
C4154       C  0.68140530  0.55196929  0.56968394     0.61830
F4155       F  0.64324113  0.95367622  0.94894249    -0.23340
F4156       F  0.67178566  0.99773569  0.92142644    -0.20670
F4157       F  0.62266405  0.98229983  0.93324198    -0.20350
F4158       F  0.70126221  0.54557539  0.58670288    -0.20400
F4159       F  0.65579527  0.54294270  0.58818049    -0.20720
F4160       F  0.69553143  0.58382430  0.56517621    -0.23390
C4161       C  0.66510527  0.50491617  0.77162580    -0.06230
C4162       C  0.65035188  0.51937993  0.78572364    -0.00300
C4163       C  0.62247442  0.51418198  0.77121763    -0.08880
C4164       C  0.61130357  0.99547144  0.74293716    -0.06250
C4165       C  0.62686461  0.98245090  0.72753917    -0.00320
C4166       C  0.65459864  0.48748857  0.74217906    -0.08780
C4167       C  0.67443295  0.47668009  0.72605428     0.61590
H4168       H  0.68642422  0.50945292  0.78259563     0.12290
H4169       H  0.59013282  0.99169864  0.73217412     0.12300
C4170       C  0.60268544  0.52704758  0.78323608     0.61830
F4171       F  0.70102098  0.48561008  0.74364687    -0.23340
F4172       F  0.68251420  0.48978701  0.69507966    -0.20670
F4173       F  0.65879854  0.94456197  0.72383734    -0.20350
F4174       F  0.61373425  0.54580353  0.81053587    -0.20400
F4175       F  0.57420742  0.50247166  0.79076267    -0.20720
F4176       F  0.59953023  0.04425058  0.75836817    -0.23390
C4177       C  0.62243887  0.55190842  0.64129024    -0.06230
C4178       C  0.59755337  0.52613560  0.62625498    -0.00300
C4179       C  0.57210160  0.52941126  0.61696731    -0.08880
C4180       C  0.57261913  0.55763046  0.62346713    -0.06250
C4181       C  0.59717512  0.58267641  0.63926120    -0.00320
C4182       C  0.62294942  0.57999978  0.64764183    -0.08780
C4183       C  0.65127284  0.60655001  0.66303550     0.61590
H4184       H  0.64176766  0.54982795  0.64877986     0.12290
H4185       H  0.55335845  0.56025207  0.61689816     0.12300
C4186       C  0.54310925  0.50277321  0.60335955     0.61830
F4187       F  0.67368784  0.59906499  0.66887566    -0.23340
F4188       F  0.64393247  0.61420460  0.69289608    -0.20670
F4189       F  0.66323377  0.63162749  0.64199282    -0.20350
F4190       F  0.53007193  0.98148691  0.62828550    -0.20400
F4191       F  0.54898012  0.98972473  0.57627957    -0.20720
F4192       F  0.52249173  0.51170838  0.59356054    -0.23390
C4193       C  0.61669450  0.83011429  0.61642099    -0.06230
C4194       C  0.58883677  0.82894978  0.62010691    -0.00300
C4195       C  0.56211869  0.79964307  0.62527139    -0.08880
C4196       C  0.56457038  0.77286258  0.62718193    -0.06250
C4197       C  0.59214925  0.77385491  0.62252855    -0.00320
C4198       C  0.61873442  0.80290059  0.61722520    -0.08780
C4199       C  0.64873797  0.80499852  0.61092865     0.61590
H4200       H  0.63674480  0.85249403  0.61195654     0.12290
H4201       H  0.54447579  0.75038500  0.63102522     0.12300
C4202       C  0.53080951  0.79582576  0.62789576     0.61830
F4203       F  0.67247609  0.83547354  0.61123483    -0.23340
F4204       F  0.64714744  0.79229304  0.58021967    -0.20670
F4205       F  0.65454113  0.78886711  0.63488731    -0.20350
F4206       F  0.52472391  0.80819821  0.60052538    -0.20400
F4207       F  0.52955407  0.81039461  0.65617110    -0.20720
F4208       F  0.50809741  0.76491795  0.62966383    -0.23390
C4209       C  0.73494106  0.92303966  0.63352816    -0.06230
C4210       C  0.74999179  0.92705047  0.60334403    -0.00300
C4211       C  0.73514867  0.92905839  0.57440736    -0.08880
C4212       C  0.70710271  0.92891890  0.57731405    -0.06250
C4213       C  0.69326480  0.92721088  0.60806707    -0.00320
C4214       C  0.70749757  0.92339080  0.63662288    -0.08780
C4215       C  0.69525769  0.92153308  0.67095865     0.61590
H4216       H  0.74559728  0.92062107  0.65559643     0.12290
H4217       H  0.69625752  0.93124908  0.55534318     0.12300
C4218       C  0.74900197  0.93204615  0.54072052     0.61830
F4219       F  0.71016795  0.91380158  0.69447237    -0.23340
F4220       F  0.66472893  0.89932072  0.67207934    -0.20670
F4221       F  0.69960843  0.95037285  0.67922067    -0.20350
F4222       F  0.75172196  0.90623427  0.53429193    -0.20400
F4223       F  0.77739937  0.95852758  0.53979559    -0.20720
F4224       F  0.73129887  0.93412490  0.51591434    -0.23390
C4225       C  0.97691154  0.92653265  0.60459277    -0.06230
C4226       C  0.98166694  0.90881822  0.62842196    -0.00300
C4227       C  0.95556014  0.88286443  0.64177478    -0.08880
C4228       C  0.92637848  0.87841817  0.63464483    -0.06250
C4229       C  0.92204209  0.89821038  0.61345993    -0.00320
C4230       C  0.94765020  0.92167598  0.59689936    -0.08780
C4231       C  0.94370860  0.94077983  0.57042341     0.61590
H4232       H  0.49613009  0.94370410  0.59114268     0.12290
H4233       H  0.90666926  0.86027585  0.64701771     0.12300
C4234       C  0.95849279  0.85951949  0.66286955     0.61830
F4235       F  0.97114791  0.96234844  0.55679203    -0.23340
F4236       F  0.93001317  0.95653477  0.58300448    -0.20670
F4237       F  0.92562740  0.92089636  0.54570086    -0.20350
F4238       F  0.97794079  0.87465573  0.68905065    -0.20400
F4239       F  0.96982869  0.84464409  0.64389811    -0.20720
F4240       F  0.93080809  0.83702180  0.67520340    -0.23390
C4241       C  0.52572661  0.67190545  0.98013135    -0.06230
C4242       C  0.99400195  0.65262488  0.97856923    -0.00300
C4243       C  0.97731954  0.64670651  0.50821186    -0.08880
C4244       C  0.49311420  0.65970475  0.53814596    -0.06250
C4245       C  0.52490868  0.67454287  0.54014773    -0.00320
C4246       C  0.54155248  0.68266230  0.51026400    -0.08780
C4247       C  0.57595970  0.70301184  0.00966699     0.61590
H4248       H  0.53848024  0.67702886  0.95750196     0.12290
H4249       H  0.98056816  0.65636670  0.56053854     0.12300
C4250       C  0.94345014  0.62464939  0.50909147     0.61830
F4251       F  0.58616579  0.71520549  0.97865393    -0.23340
F4252       F  0.58940097  0.68578762  0.51827240    -0.20670
F4253       F  0.58529955  0.72776857  0.53128746    -0.20350
F4254       F  0.93808582  0.59495299  0.50323647    -0.20400
F4255       F  0.92892566  0.63243109  0.98539265    -0.20720
F4256       F  0.93123776  0.62499142  0.53935784    -0.23390
C4257       C  0.52787706  0.68008645  0.79294636    -0.06230
C4258       C  0.99604247  0.66156773  0.79183394    -0.00300
C4259       C  0.98141855  0.65853119  0.76063600    -0.08880
C4260       C  0.99871509  0.66637479  0.73158650    -0.06250
C4261       C  0.53037236  0.68097743  0.73243068    -0.00320
C4262       C  0.54511691  0.69213295  0.76372711    -0.08780
C4263       C  0.57728481  0.71987237  0.76641685     0.61590
H4264       H  0.53920544  0.68525465  0.81674187     0.12290
H4265       H  0.98730543  0.66143571  0.70784672     0.12300
C4266       C  0.94965784  0.65375206  0.75671043     0.61830
F4267       F  0.58433886  0.73094931  0.79849353    -0.23340
F4268       F  0.57942479  0.74366522  0.74691465    -0.20670
F4269       F  0.59887981  0.71271333  0.75644564    -0.20350
F4270       F  0.95208469  0.68254694  0.75280091    -0.20400
F4271       F  0.93127682  0.63949252  0.78322175    -0.20720
F4272       F  0.93560371  0.63616249  0.72881129    -0.23390
C4273       C  0.87900516  0.53948011  0.50573005    -0.06230
C4274       C  0.88404900  0.52607128  0.97794344    -0.00300
C4275       C  0.87765234  0.99486631  0.97947196    -0.08880
C4276       C  0.87013088  0.97958971  0.00973449    -0.06250
C4277       C  0.86724070  0.99360922  0.53843126    -0.00320
C4278       C  0.87098017  0.52401130  0.53623874    -0.08780
C4279       C  0.86735335  0.54067895  0.56564443     0.61590
H4280       H  0.88193865  0.56251939  0.50342796     0.12290
H4281       H  0.86561980  0.95590922  0.01083093     0.12300
C4282       C  0.87570972  0.97657935  0.94881382     0.61830
F4283       F  0.87574524  0.57119739  0.55867852    -0.23340
F4284       F  0.88564193  0.54120417  0.59105197    -0.20670
F4285       F  0.83738832  0.52558247  0.57553952    -0.20350
F4286       F  0.90412999  0.98831531  0.93517371    -0.20400
F4287       F  0.85591448  0.97858160  0.92686370    -0.20720
F4288       F  0.86458408  0.94533212  0.95510403    -0.23390
C4289       C  0.85837316  0.51311326  0.72897540    -0.06230
C4290       C  0.84830987  0.98185647  0.73492387    -0.00300
C4291       C  0.84265962  0.97012274  0.76727673    -0.08880
C4292       C  0.84966264  0.49118631  0.79352362    -0.06250
C4293       C  0.86297741  0.52317016  0.78757265    -0.00320
C4294       C  0.86631614  0.53427868  0.75486688    -0.08780
C4295       C  0.88168711  0.56858540  0.74689762     0.61590
H4296       H  0.86263109  0.52133277  0.70376554     0.12290
H4297       H  0.84693788  0.98319308  0.81874916     0.12300
C4298       C  0.82974168  0.93580639  0.77363021     0.61830
F4299       F  0.87646682  0.57357413  0.71454455    -0.23340
F4300       F  0.91261248  0.58127800  0.75142357    -0.20670
F4301       F  0.87107405  0.58345711  0.76708288    -0.20350
F4302       F  0.84943573  0.92644329  0.76214820    -0.20400
F4303       F  0.80211050  0.91927352  0.75739735    -0.20720
F4304       F  0.82510125  0.92897737  0.80685522    -0.23390
C4305       C  0.54686035  0.61061708  0.88229445    -0.06230
C4306       C  0.52534228  0.59268634  0.90581306    -0.00300
C4307       C  0.53302756  0.57737195  0.93062328    -0.08880
C4308       C  0.56140263  0.57934912  0.92910716    -0.06250
C4309       C  0.58272974  0.59656377  0.90481056    -0.00320
C4310       C  0.57559813  0.61329556  0.88178309    -0.08780
C4311       C  0.59778224  0.63340468  0.85628066     0.61770
H4312       H  0.54092648  0.62260704  0.86409067     0.12290
H4313       H  0.56710209  0.56718932  0.94728353     0.12300
C4314       C  0.51220985  0.55928799  0.95912217     0.61830
F4315       F  0.58603995  0.64740589  0.83636264    -0.23340
F4316       F  0.60471427  0.61491875  0.83695432    -0.20670
F4317       F  0.62366986  0.65676097  0.87153231    -0.20350
F4318       F  0.48640080  0.53321979  0.94724490    -0.20400
F4319       F  0.50430774  0.57818731  0.97641124    -0.20720
F4320       F  0.52600526  0.54904858  0.98134749    -0.23390
C4321       C  0.82046140  0.59888531  0.83126169    -0.06230
C4322       C  0.83243543  0.59991601  0.86313808    -0.00300
C4323       C  0.81645137  0.60180932  0.89116957    -0.08880
C4324       C  0.79027873  0.60352532  0.88526916    -0.06250
C4325       C  0.77697824  0.59949193  0.85388577    -0.00320
C4326       C  0.79228563  0.59712315  0.82616068    -0.08780
C4327       C  0.77832594  0.59071541  0.79177311     0.61590
H4328       H  0.83225319  0.59706407  0.81005660     0.12290
H4329       H  0.77866585  0.60594296  0.90641446     0.12300
C4330       C  0.82293497  0.60078784  0.92807683     0.61830
F4331       F  0.79652615  0.58751331  0.76873513    -0.23340
F4332       F  0.77427422  0.61503412  0.78200399    -0.20670
F4333       F  0.75058770  0.56331666  0.79170637    -0.20350
F4334       F  0.82419692  0.62623302  0.94368384    -0.20400
F4335       F  0.84926479  0.60101924  0.93638633    -0.20720
F4336       F  0.79908971  0.57412732  0.94130990    -0.23390
C4337       C  0.99586443  0.87433343  0.99032391    -0.06230
C4338       C  0.99837687  0.85385462  0.96847740    -0.00300
C4339       C  0.51407676  0.83848422  0.97906343    -0.08880
C4340       C  0.52718881  0.84499126  0.01121173    -0.06250
C4341       C  0.52323370  0.86467370  0.53314596    -0.00320
C4342       C  0.50628338  0.87845046  0.52266545    -0.08780
C4343       C  0.49753848  0.89597449  0.54631313     0.61590
H4344       H  0.98431393  0.88648862  0.98224875     0.12290
H4345       H  0.54109612  0.83535232  0.01917922     0.12300
C4346       C  0.51688000  0.81555351  0.95685357     0.61830
F4347       F  0.47831602  0.90494463  0.53211312    -0.23340
F4348       F  0.52318934  0.92245583  0.55755280    -0.20670
F4349       F  0.48231910  0.87631772  0.57209426    -0.20350
F4350       F  0.53253255  0.83051567  0.92873405    -0.20400
F4351       F  0.98826357  0.79156895  0.94816900    -0.20720
F4352       F  0.53238430  0.80274803  0.97224055    -0.23390
C4353       C  0.99694211  0.83351559  0.72101488    -0.06230
C4354       C  0.52569753  0.86027415  0.71794193    -0.00300
C4355       C  0.54196967  0.87503913  0.74746853    -0.08880
C4356       C  0.52717545  0.86587196  0.77785606    -0.06250
C4357       C  0.99680309  0.84253006  0.78029611    -0.00320
C4358       C  0.98181362  0.82446821  0.75156129    -0.08780
C4359       C  0.95094352  0.79485307  0.75104567     0.61590
H4360       H  0.98514856  0.82064223  0.69895958     0.12290
H4361       H  0.53861715  0.87922997  0.79982511     0.12300
C4362       C  0.57317374  0.90347498  0.74761851     0.61830
F4363       F  0.93290359  0.79657044  0.72645185    -0.23340
F4364       F  0.93537953  0.78879932  0.78025823    -0.20670
F4365       F  0.95511253  0.76999665  0.74406761    -0.20350
F4366       F  0.56965344  0.92856623  0.74046268    -0.20400
F4367       F  0.59184189  0.90039216  0.72520425    -0.20720
F4368       F  0.58726039  0.90866135  0.77800473    -0.23390
C4369       C  0.93373741  0.96030039  0.84247609    -0.06230
C4370       C  0.90964821  0.93281835  0.85535634    -0.00300
C4371       C  0.88331755  0.93366086  0.86533544    -0.08880
C4372       C  0.88445132  0.96269398  0.86682390    -0.06250
C4373       C  0.91095367  0.99107705  0.85968136    -0.00320
C4374       C  0.93533351  0.98945601  0.84477805    -0.08780
C4375       C  0.96285385  0.51790042  0.83075208     0.61590
H4376       H  0.95169506  0.95882627  0.83071080     0.12290
H4377       H  0.86450235  0.96334974  0.87429857     0.12300
C4378       C  0.85346399  0.90418500  0.87239634     0.61830
F4379       F  0.98014320  0.50986810  0.81133112    -0.23340
F4380       F  0.98121443  0.53664981  0.85613921    -0.20670
F4381       F  0.95359408  0.53442695  0.81116992    -0.20350
F4382       F  0.85589837  0.89034572  0.90077825    -0.20400
F4383       F  0.84577629  0.88369902  0.84618138    -0.20720
F4384       F  0.82987854  0.91012874  0.87670322    -0.23390
C4385       C  0.95583915  0.71804008  0.85860104    -0.06230
C4386       C  0.93699596  0.69402070  0.87987716    -0.00300
C4387       C  0.92222056  0.70061448  0.90538029    -0.08880
C4388       C  0.92530678  0.73026634  0.90742199    -0.06250
C4389       C  0.94054896  0.75296701  0.88335024    -0.00320
C4390       C  0.95903291  0.74786408  0.86089710    -0.08780
C4391       C  0.98436987  0.77404752  0.84212055     0.61590
H4392       H  0.96862201  0.71341844  0.84044811     0.12290
H4393       H  0.91486980  0.73550839  0.92754691     0.12300
C4394       C  0.90051137  0.67544418  0.92791224     0.61830
F4395       F  0.50446470  0.76571702  0.82931522    -0.23340
F4396       F  0.00071174  0.79923863  0.86290774    -0.20670
F4397       F  0.97223245  0.78202838  0.81633921    -0.20350
F4398       F  0.91579057  0.66501258  0.94734205    -0.20400
F4399       F  0.87954475  0.65170085  0.90830416    -0.20720
F4400       F  0.88526551  0.68520442  0.94844066    -0.23390
C4401       C  0.55708460  0.93504725  0.86501000    -0.06230
C4402       C  0.53102150  0.93779879  0.86342473    -0.00300
C4403       C  0.53465167  0.96786446  0.86331868    -0.08880
C4404       C  0.56392776  0.99406964  0.86673679    -0.06250
C4405       C  0.59039885  0.99171433  0.86769700    -0.00320
C4406       C  0.58674186  0.96123986  0.86480451    -0.08780
C4407       C  0.61211208  0.95393004  0.85965797     0.61590
H4408       H  0.55420393  0.91188705  0.86427116     0.12290
H4409       H  0.56621491  0.51690347  0.86803875     0.12300
C4410       C  0.50785023  0.97228359  0.85771193     0.61830
F4411       F  0.60385380  0.93211335  0.83481618    -0.23340
F4412       F  0.61634572  0.94117452  0.88793423    -0.20670
F4413       F  0.63925836  0.97910787  0.85036003    -0.20350
F4414       F  0.98480303  0.95413240  0.87933693    -0.20400
F4415       F  0.99821513  0.96355269  0.82554066    -0.20720
F4416       F  0.51521748  0.00293492  0.86207190    -0.23390
C4417       C  0.79825995  0.69000429  0.88081978    -0.06230
C4418       C  0.77259887  0.69255169  0.87431258    -0.00300
C4419       C  0.77619638  0.72273921  0.87111307    -0.08880
C4420       C  0.80567825  0.74921381  0.87332576    -0.06250
C4421       C  0.83144805  0.74668409  0.87995949    -0.00320
C4422       C  0.82744276  0.71655016  0.88423621    -0.08780
C4423       C  0.85400912  0.71263533  0.89264100     0.61590
H4424       H  0.79515494  0.66691935  0.88360186     0.12290
H4425       H  0.80881363  0.77231494  0.87053034     0.12300
C4426       C  0.74908360  0.72717869  0.86596914     0.61830
F4427       F  0.84597818  0.68166020  0.89487246    -0.23340
F4428       F  0.86560822  0.72682669  0.92274206    -0.20670
F4429       F  0.87557176  0.72628764  0.86835952    -0.20350
F4430       F  0.72842714  0.71272962  0.89090953    -0.20400
F4431       F  0.73534728  0.71457194  0.83607494    -0.20720
F4432       F  0.75733693  0.75830703  0.86605804    -0.23390
C4433       C  0.87128930  0.89490308  0.50274674    -0.06230
C4434       C  0.84506978  0.87265542  0.51851360    -0.00300
C4435       C  0.82829203  0.84224262  0.50475736    -0.08880
C4436       C  0.83854675  0.83534110  0.97540816    -0.06250
C4437       C  0.86587417  0.85712897  0.96075407    -0.00320
C4438       C  0.88294916  0.88747543  0.97504089    -0.08780
C4439       C  0.91379662  0.91198447  0.96210536     0.61590
H4440       H  0.88324707  0.91809730  0.51325357     0.12290
H4441       H  0.82626709  0.81217163  0.96477867     0.12300
C4442       C  0.80028136  0.81687331  0.52138251     0.61830
F4443       F  0.92454127  0.94043647  0.97779798    -0.23340
F4444       F  0.91175611  0.91660323  0.92900435    -0.20670
F4445       F  0.93494086  0.90269352  0.96713876    -0.20350
F4446       F  0.77788359  0.82467257  0.52119201    -0.20400
F4447       F  0.80723552  0.81337676  0.55347518    -0.20720
F4448       F  0.78892290  0.78844730  0.50545808    -0.23390
C4449       C  0.87700789  0.86181342  0.71993798    -0.06230
C4450       C  0.84839091  0.85847767  0.71610187    -0.00300
C4451       C  0.82688191  0.84551162  0.74147471    -0.08880
C4452       C  0.83565682  0.83777138  0.77133317    -0.06250
C4453       C  0.86536472  0.84318647  0.77631841    -0.00320
C4454       C  0.88642172  0.85514484  0.74971346    -0.08780
C4455       C  0.91926869  0.86276116  0.75224547     0.61590
H4456       H  0.89288439  0.87225494  0.69992853     0.12290
H4457       H  0.81956644  0.82824320  0.79128163     0.12300
C4458       C  0.79489871  0.83968291  0.73653356     0.61830
F4459       F  0.93536479  0.87639068  0.72398256    -0.23340
F4460       F  0.92018522  0.83585312  0.75745436    -0.20670
F4461       F  0.93409648  0.88372606  0.77738209    -0.20350
F4462       F  0.78147724  0.81969702  0.71008137    -0.20400
F4463       F  0.79557643  0.86728198  0.73009327    -0.20720
F4464       F  0.77710730  0.82640239  0.76400171    -0.23390
loop_ 
_geom_bond_atom_site_label_1 
_geom_bond_atom_site_label_2 
_geom_bond_distance 
_geom_bond_site_symmetry_2 
_ccdc_geom_bond_type 
O1            C9   1.254       .  A
O1          Co21   2.015       .  S
O2           C10   1.257       .  A
O2          Co22   1.936       .  S
O3           C11   1.279       .  A
O3          Co23   2.037       .  S
O4           C12   1.246       .  A
O4          Co24   1.972       .  S
O5           C11   1.255       .  A
O5          Co22   1.957       .  S
O6           C12   1.259       .  A
O6          Co21   2.024       .  S
O7           C10   1.271       .  A
O7          Co24   2.038       .  S
O8            C9   1.249       .  A
O8          Co23   1.985       .  S
C9          C464   1.513       .  S
C10         C432   1.488       .  S
C11         C531   1.486       .  S
C12        C2728   1.496       .  S
O13          C26   1.289       .  A
O13         Co21   2.052       .  S
O14          C27   1.268       .  A
O14         Co22   2.036       .  S
O15          C28   1.280       .  A
O15         Co23   1.924       .  S
O16          C29   1.261       .  A
O16         Co24   1.989       .  S
O17          C29   1.270       .  A
O17         Co22   2.024       .  S
O18          C28   1.286       .  A
O18         Co21   2.040       .  S
O19          C26   1.278       .  A
O19         Co24   1.917       .  S
O20          C27   1.259       .  A
O20         Co23   1.997       .  S
Co21         O25   2.232       .  S
Co22         O25   2.079       .  S
Co23         O25   1.997       .  S
Co24         O25   1.988       .  S
C26         C451   1.490       .  S
C27         C515   1.504       .  S
C28         C547   1.488       .  S
C29         C483   1.508       .  S
O30          C38   1.250       .  A
O30         Co50   1.960       .  S
O31          C39   1.268       .  A
O31         Co51   1.985       .  S
O32          C40   1.302       .  A
O32       Co2284   2.113       .  S
O33          C41   1.262       .  A
O33         Co53   2.004       .  S
O34        C2272   1.246       .  A
O34         Co51   1.847       .  S
O35          C41   1.251       .  A
O35         Co50   1.943       .  S
O36          C39   1.280       .  A
O36         Co53   2.037       .  S
O37          C38   1.276       .  A
O37         Co52   2.074       .  S
C38         C352   1.511       .  S
C39        C1583   1.513   1_545  S
C40        O2266   1.246       .  A
C40         C400   1.477   1_655  S
C41         C387   1.461       .  S
O42          C55   1.277       .  A
O42         Co50   2.016       .  S
O43          C56   1.304       .  A
O43         Co51   2.119       .  S
O44          C57   1.264       .  A
O44         Co52   1.976       .  S
O45          C58   1.253       .  A
O45         Co53   1.987       .  S
O46          C58   1.251       .  A
O46         Co51   1.990       .  S
O47          C57   1.275       .  A
O47         Co50   2.036       .  S
O48          C55   1.254       .  A
O48         Co53   1.935       .  S
O49          C56   1.272       .  A
O49         Co52   1.891       .  S
Co50         O54   2.015       .  S
Co51         O54   1.977       .  S
Co52       O2264   2.113       .  S
Co52         O54   2.041       .  S
Co53         O54   2.069       .  S
C55         C416   1.485       .  S
C56         C336   1.500       .  S
C57         C480   1.491       .  S
C58         C368   1.482       .  S
O59          C67   1.289       .  A
O59         Co79   2.095       .  S
O60          C68   1.265       .  A
O60         Co80   2.016       .  S
O61          C69   1.267       .  A
O61         Co81   1.971       .  S
O62          C70   1.249       .  A
O62         Co82   1.946       .  S
O63          C69   1.288       .  A
O63         Co80   2.054       .  S
O64          C70   1.268       .  A
O64         Co79   2.036       .  S
O65          C68   1.258       .  A
O65         Co82   1.950       .  S
O66          C67   1.271       .  A
O66         Co81   1.946       .  S
C67        C2552   1.513   1_455  S
C68         C240   1.477       .  S
C69        C1388   1.519       .  S
C70         C435   1.478       .  S
O71          C84   1.264       .  A
O71         Co79   1.963       .  S
O72          C85   1.253       .  A
O72         Co80   1.959       .  S
O73          C86   1.286       .  A
O73         Co81   2.076       .  S
O74          C87   1.274       .  A
O74         Co82   2.039       .  S
O75          C87   1.270       .  A
O75         Co80   2.000       .  S
O76          C86   1.270       .  A
O76         Co79   1.923       .  S
O77          C84   1.281       .  A
O77         Co82   2.041       .  S
O78          C85   1.272       .  A
O78         Co81   2.024       .  S
Co79         O83   2.049       .  S
Co80         O83   2.055       .  S
Co81         O83   2.037       .  S
Co82         O83   2.027       .  S
C84         C288   1.482       .  S
C85         C259   1.501       .  S
C86         C448   1.506       .  S
C87         C307   1.530       .  S
O88          C96   1.269       .  A
O88        Co108   2.062       .  S
O89          C97   1.268       .  A
O89        Co109   2.026       .  S
O90          C98   1.247       .  A
O90        Co110   1.931       .  S
O91          C99   1.260       .  A
O91        Co111   1.862       .  S
O92          C98   1.276       .  A
O92        Co109   2.034       .  S
O93          C99   1.300       .  A
O93        Co108   2.110       .  S
O94          C97   1.268       .  A
O94        Co111   1.974       .  S
O95          C96   1.239       .  A
O95        Co110   1.927       .  S
C96         C208   1.488       .  S
C97        C1615   1.509   1_545  S
C98         C256   1.483       .  S
C99         C403   1.490       .  S
O100        C113   1.272       .  A
O100       Co108   1.914       .  S
O101        C114   1.252       .  A
O101       Co109   1.923       .  S
O102        C115   1.278       .  A
O102       Co110   2.045       .  S
O103        C116   1.260       .  A
O103       Co111   2.005       .  S
O104        C116   1.252       .  A
O104       Co109   1.979       .  S
O105        C115   1.269       .  A
O105       Co108   1.981       .  S
O106        C113   1.293       .  A
O106       Co111   2.082       .  S
O107        C114   1.268       .  A
O107       Co110   2.015       .  S
Co108       O112   2.048       .  S
Co109       O112   2.047       .  S
Co110       O112   2.041       .  S
Co111       O112   1.996       .  S
C113        C224   1.480       .  S
C114        C419   1.480       .  S
C115        C512   1.493       .  S
C116        C243   1.472       .  S
O117        C125   1.268       .  A
O117       Co137   2.015       .  S
O118        C126   1.296       .  A
O118       Co138   2.055       .  S
O119        C127   1.281       .  A
O119       Co139   1.945       .  S
O120        C128   1.250       .  A
O120       Co140   1.980       .  S
O121        C127   1.290       .  A
O121       Co138   2.044       .  S
O122        C128   1.268       .  A
O122       Co137   2.066       .  S
O123        C126   1.279       .  A
O123       Co140   1.926       .  S
O124        C125   1.262       .  A
O124       Co139   1.992       .  S
C125       C2411   1.491   1_455  S
C126        C227   1.483       .  S
C127        C339   1.499       .  S
C128        C275   1.495       .  S
O129        C142   1.245       .  A
O129       Co137   1.949       .  S
O130        C143   1.256       .  A
O130       Co138   2.004       .  S
O131        C144   1.279       .  A
O131       Co139   2.051       .  S
O132        C145   1.238       .  A
O132       Co140   1.948       .  S
O133        C145   1.253       .  A
O133       Co138   1.986       .  S
O134        C144   1.252       .  A
O134       Co137   1.969       .  S
O135        C142   1.274       .  A
O135       Co140   2.053       .  S
O136        C143   1.248       .  A
O136       Co139   1.957       .  S
Co137       O141   2.055       .  S
Co138       O141   2.230       .  S
Co139       O141   1.966       .  S
Co140       O141   1.949       .  S
C142        C211   1.487       .  S
C143        C291   1.481       .  S
C144        C355   1.509       .  S
C145        C192   1.478       .  S
O146        C154   1.256       .  A
O146       Co166   1.964       .  S
O147        C155   1.267       .  A
O147       Co167   1.964       .  S
O148        C156   1.307       .  A
O148       Co168   2.095       .  S
O149        C157   1.291       .  A
O149       Co169   2.077       .  S
O150        C156   1.270       .  A
O150       Co167   1.929       .  S
O151        C157   1.254       .  A
O151       Co166   1.932       .  S
O152        C155   1.268       .  A
O152       Co169   2.008       .  S
O153        C154   1.287       .  A
O153       Co168   2.052       .  S
C154        C323   1.489       .  S
C155        C371   1.492       .  S
C156        C528   1.486       .  S
C157       C1292   1.501       .  S
O158        C171   1.254       .  A
O158       Co166   1.983       .  S
O159        C172   1.285       .  A
O159       Co167   2.076       .  S
O160        C173   1.261       .  A
O160       Co168   1.997       .  S
O161        C174   1.257       .  A
O161       Co169   1.970       .  S
O162        C174   1.274       .  A
O162       Co167   2.058       .  S
O163        C173   1.253       .  A
O163       Co166   1.969       .  S
O164        C171   1.244       .  A
O164       Co169   1.961       .  S
O165        C172   1.262       .  A
O165       Co168   1.897       .  S
Co166       O170   2.049       .  S
Co167       O170   2.029       .  S
Co168       O170   2.015       .  S
Co169       O170   2.026       .  S
C171        C384   1.451       .  S
C172        C195   1.463       .  S
C173        C544   1.459       .  S
C174        C304   1.525       .  S
C175        C176   1.397       .  A
C175        C180   1.405       .  A
C175        H182   1.076       .  S
C176       C1273   1.501   1_545  S
C176        C177   1.436       .  A
C177        C178   1.411       .  A
C177        C184   1.524       .  S
C178        C179   1.397       .  A
C178       H2415   1.083       .  S
C179       C2357   1.491       .  S
C179        C180   1.419       .  A
C180        C181   1.505       .  S
C181        F185   1.385       .  S
C181        F186   1.373       .  S
C181        F187   1.378       .  S
H183       C2410   1.083   1_455  S
C184       F1304   1.381   1_545  S
C184       F1305   1.384   1_545  S
C184       F2422   1.385       .  S
F188       C1300   1.381       .  S
F189       C1300   1.384       .  S
F190       C2416   1.385       .  S
C191        C192   1.403       .  A
C191        C196   1.393       .  A
C191        H198   1.075       .  S
C192        C193   1.422       .  A
C193        C194   1.403       .  A
C193        C200   1.521       .  S
C194        C195   1.402       .  A
C194        H199   1.082       .  S
C195        C196   1.410       .  A
C196        C197   1.519       .  S
C197        F201   1.384       .  S
C197        F202   1.375       .  S
C197        F203   1.378       .  S
C200        F204   1.383       .  S
C200        F205   1.383       .  S
C200        F206   1.385       .  S
C207        C208   1.388       .  A
C207        C212   1.396       .  A
C207        H214   1.073       .  S
C208        C209   1.433       .  A
C209        C210   1.420       .  A
C209        C216   1.518       .  S
C210        C211   1.402       .  A
C210        H215   1.083       .  S
C211        C212   1.422       .  A
C212        C213   1.524       .  S
C213        F217   1.379       .  S
C213        F218   1.365       .  S
C213        F219   1.375       .  S
C216        F220   1.381       .  S
C216        F221   1.379       .  S
C216        F222   1.385       .  S
C223        C224   1.400       .  A
C223        C786   1.401       .  A
C223        H230   1.079       .  S
C224        C225   1.413       .  A
C225        C784   1.414       .  A
C225        C232   1.514       .  S
C226        C227   1.408       .  A
C226        C783   1.414   1_554  A
C226        H231   1.083       .  S
C227        C228   1.419       .  A
C228        C781   1.401   1_554  A
C228        C229   1.519       .  S
C229        F233   1.384       .  S
C229        F234   1.382       .  S
C229        F235   1.378       .  S
C232        F236   1.381       .  S
C232        F237   1.383       .  S
C232        F796   1.384       .  S
F238        C790   1.384   1_554  S
C239        C244   1.392       .  A
C239        C798   1.396       .  A
C239        H246   1.084       .  S
C240        C797   1.396       .  A
C240       C1357   1.417       .  A
C241        C242   1.413       .  A
C241       C1356   1.417       .  A
C241        C248   1.510       .  S
C242        C801   1.403   1_554  A
C242        H247   1.083       .  S
C243        C800   1.403       .  A
C243       C1360   1.413       .  A
C244       C1359   1.413       .  A
C244        C245   1.508       .  S
C245        F249   1.385       .  S
C245        F250   1.383       .  S
C245        F251   1.380       .  S
C248        F252   1.383       .  S
C248        F253   1.375       .  S
C248        F254   1.384       .  S
C255        C256   1.398       .  A
C255        C260   1.409   1_545  A
C255        H262   1.083       .  S
C256        C257   1.430       .  A
C257       C1374   1.400   1_545  A
C257        C264   1.521       .  S
C258        C259   1.399       .  A
C258       C1373   1.400       .  A
C258        H263   1.085       .  S
C259       C1376   1.428       .  A
C260       C1375   1.428       .  A
C260        C261   1.513       .  S
C261        F265   1.385       .  S
C261        F266   1.384       .  S
C261       F1383   1.383       .  S
C264        F268   1.368       .  S
C264        F269   1.384       .  S
C264       F1386   1.384       .  S
F267       C1377   1.383       .  S
F270       C1380   1.384       .  S
C271        C272   1.405       .  A
C271        C276   1.406       .  A
C271        H278   1.081       .  S
C272       C1185   1.519   1_545  S
C272        C273   1.432       .  A
C273        C274   1.414       .  A
C273        C280   1.503       .  S
C274        C275   1.394       .  A
C274        H279   1.083       .  S
C275        C276   1.422       .  A
C276        C277   1.511       .  S
C277        F281   1.385       .  S
C277        F282   1.378       .  S
C277        F283   1.380       .  S
C280        F286   1.385       .  S
C280       F1400   1.376   1_545  S
C280       F1401   1.383   1_545  S
F284       C1396   1.376       .  S
F285       C1396   1.383       .  S
C287        C288   1.399       .  A
C287        C292   1.408       .  A
C287        H294   1.084       .  S
C288        C289   1.425       .  A
C289        C290   1.400       .  A
C289        C296   1.512       .  S
C290        C291   1.394       .  A
C290        H295   1.083       .  S
C291        C292   1.416       .  A
C292        C293   1.501       .  S
C293        F297   1.384       .  S
C293        F298   1.379       .  S
C293        F299   1.383       .  S
C296        F300   1.377       .  S
C296        F301   1.374       .  S
C296        F302   1.385       .  S
C303        C304   1.410       .  A
C303        C308   1.412       .  A
C303        H310   1.081       .  S
C304        C305   1.422       .  A
C305        C306   1.430       .  A
C305        C312   1.516       .  S
C306        C307   1.419       .  A
C306        H311   1.082       .  S
C307        C308   1.425       .  A
C308        C309   1.514       .  S
C309        F313   1.385       .  S
C309        F314   1.383       .  S
C309        F315   1.376       .  S
C312        F316   1.382       .  S
C312        F317   1.383       .  S
C312        F318   1.384       .  S
C319        C320   1.408       .  A
C319        C324   1.416       .  A
C319       H2558   1.074       .  S
C320       C2299   1.513       .  S
C320        C321   1.420       .  A
C321        C322   1.415       .  A
C321        C328   1.509       .  S
C322        C323   1.405       .  A
C322        H327   1.083       .  S
C323        C324   1.414       .  A
C324        C325   1.513       .  S
C325        F329   1.384       .  S
C325        F330   1.382       .  S
C325        F331   1.378       .  S
H326       C2551   1.074       .  S
C328        F332   1.381       .  S
C328        F333   1.380       .  S
C328        F334   1.384       .  S
C335       C2568   1.405   1_455  A
C335        C898   1.407       .  A
C335        H342   1.083       .  S
C336       C2567   1.405       .  A
C336        C895   1.421       .  A
C337        C894   1.421   1_554  A
C337       C2570   1.414       .  A
C337        C344   1.509       .  S
C338        C339   1.403   1_655  A
C338       C2569   1.414       .  A
C338       H2575   1.079       .  S
C339        C340   1.423       .  A
C340        C893   1.407   1_554  A
C340        C899   1.520       .  S
C341        C898   1.520       .  S
C341        F345   1.385       .  S
C341        F904   1.382       .  S
C341        F905   1.382       .  S
H343       C2570   1.079       .  S
C344        F348   1.379       .  S
C344        F350   1.384       .  S
C344        F907   1.378   1_554  S
F346        C899   1.382       .  S
F347        C899   1.382       .  S
F349        C902   1.378       .  S
C351        C356   1.423       .  A
C351       C2584   1.405   1_455  A
C351        H358   1.083       .  S
C352        C353   1.433       .  A
C352       C2583   1.405       .  A
C353        C354   1.410       .  A
C353        C360   1.518       .  S
C354       C2587   1.396       .  A
C354        H359   1.083       .  S
C355        C356   1.431       .  A
C355       C2586   1.396   1_455  A
C356        C357   1.524       .  S
C357        F361   1.385       .  S
C357        F362   1.383       .  S
C357        F363   1.377       .  S
C360        F364   1.383       .  S
C360        F365   1.374       .  S
C360        F366   1.383       .  S
C367        C372   1.410       .  A
C367        C926   1.398   1_554  A
C367        H374   1.082       .  S
C368        C925   1.398       .  A
C368       C1485   1.417   1_545  A
C369        C370   1.397       .  A
C369       C1484   1.417       .  A
C369        C376   1.512       .  S
C370        C929   1.402       .  A
C370        H375   1.081       .  S
C371        C928   1.402       .  A
C371       C1488   1.428       .  A
C372       C1487   1.428   1_545  A
C372        C373   1.515       .  S
C373        F377   1.384       .  S
C373        F378   1.375       .  S
C373        F379   1.382       .  S
C376        F380   1.380       .  S
C376        F381   1.381       .  S
C376        F382   1.385       .  S
C383        C388   1.391       .  A
C383       C1500   1.392   1_545  A
C383        H390   1.085       .  S
C384        C385   1.410       .  A
C384       C1499   1.392       .  A
C385       C1502   1.404       .  A
C385        C392   1.512       .  S
C386        C387   1.402   1_565  A
C386       C1501   1.404       .  A
C386       H1507   1.083       .  S
C387        C388   1.417       .  A
C388        C389   1.513       .  S
C389        F393   1.385       .  S
C389        F394   1.381       .  S
C389        F395   1.383       .  S
H391       C1502   1.083       .  S
C392        F396   1.383       .  S
C392        F397   1.382       .  S
C392        F398   1.384       .  S
C399        C400   1.394       .  A
C399        C404   1.401       .  A
C399        H406   1.082       .  S
C400        C401   1.429       .  A
C401        C402   1.399       .  A
C401        C408   1.528       .  S
C402        C403   1.403       .  A
C402        H407   1.081       .  S
C403        C404   1.414       .  A
C404        C405   1.494       .  S
C405        F409   1.381       .  S
C405        F410   1.382       .  S
C405        F411   1.384       .  S
C408        F412   1.384   1_455  S
C408        F413   1.384       .  S
C408        F414   1.385       .  S
C415        C416   1.416       .  A
C415        C420   1.406       .  A
C415        H422   1.082       .  S
C416        C417   1.433       .  A
C417        C418   1.396       .  A
C417        C424   1.538       .  S
C418        C419   1.404       .  A
C418        H423   1.085       .  S
C419        C420   1.411       .  A
C420        C421   1.520       .  S
C421        F425   1.385       .  S
C421        F426   1.383       .  S
C421        F427   1.384       .  S
C424        F428   1.385       .  S
C424        F429   1.374       .  S
C424        F430   1.384       .  S
C431        C432   1.402       .  A
C431       C3226   1.388       .  A
C431        H438   1.083       .  S
C432       C2665   1.420       .  A
C433        C434   1.421       .  A
C433       C2664   1.420   1_455  A
C433        C440   1.514       .  S
C434        C993   1.409       .  A
C434        H439   1.083       .  S
C435        C436   1.408       .  A
C435        C992   1.409       .  A
C436       C3221   1.388   1_454  A
C436        C437   1.506   1_455  S
C437        F441   1.385       .  S
C437        F442   1.381   1_655  S
C437        F443   1.380       .  S
C440        F444   1.383       .  S
C440        F446   1.384       .  S
C440       F2677   1.383   1_455  S
F445       C2672   1.383       .  S
C447        C452   1.414       .  A
C447       C2680   1.405       .  A
C447        H454   1.084       .  S
C448        C449   1.425       .  A
C448       C2679   1.405   1_455  A
C449        C450   1.402       .  A
C449        C456   1.505       .  S
C450       C2683   1.395   1_455  A
C450        H455   1.084       .  S
C451        C452   1.429       .  A
C451       C2682   1.395       .  A
C452        C453   1.520       .  S
C453        F457   1.383       .  S
C453        F458   1.378       .  S
C453        F459   1.383       .  S
C456        F460   1.377       .  S
C456        F461   1.382       .  S
C456        F462   1.379       .  S
C463        C464   1.404       .  A
C463        C468   1.413       .  A
C463        H470   1.069       .  S
C464        C465   1.423       .  A
C465        C466   1.416       .  A
C465        C472   1.520       .  S
C466        C467   1.411       .  A
C466        H471   1.078       .  S
C467       C1155   1.513       .  S
C467        C468   1.422       .  A
C468       C1585   1.520       .  S
C469       C1584   1.520   1_545  S
C469        F473   1.384       .  S
C469        F474   1.382       .  S
C469        F475   1.384       .  S
C472        F476   1.379       .  S
C472        F477   1.382       .  S
C472        F478   1.385       .  S
C479        C480   1.399       .  A
C479        C484   1.410       .  A
C479        H486   1.084       .  S
C480        C481   1.414       .  A
C481        C482   1.404       .  A
C481        C488   1.501       .  S
C482        C483   1.402       .  A
C482        H487   1.078       .  S
C483        C484   1.425       .  A
C484        C485   1.507       .  S
C485        F490   1.382       .  S
C485        F491   1.368       .  S
C485       F2721   1.385       .  S
C488        F492   1.376       .  S
C488        F493   1.372       .  S
C488        F494   1.384       .  S
F489       C2717   1.385   1_455  S
C495        C496   1.401       .  A
C495        C500   1.414       .  A
C495        H502   1.085       .  S
C496       C2244   1.496       .  S
C496        C497   1.411       .  A
C497        C498   1.408       .  A
C497        C504   1.502       .  S
C498        C499   1.410       .  A
C498       H1619   1.082       .  S
C499       C1213   1.509       .  S
C499        C500   1.435       .  A
C500        C501   1.522       .  S
C501        F505   1.378       .  S
C501        F506   1.379       .  S
C501        F507   1.375       .  S
H503       C1614   1.082   1_545  S
C504        F510   1.384       .  S
C504       F2740   1.384   1_455  S
C504       F2741   1.381   1_455  S
F508       C2736   1.384       .  S
F509       C2736   1.381       .  S
C511        C512   1.397       .  A
C511        C516   1.412       .  A
C511        H518   1.083       .  S
C512        C513   1.424       .  A
C513        C514   1.416       .  A
C513        C520   1.516       .  S
C514        C515   1.403       .  A
C514        H519   1.083       .  S
C515        C516   1.418       .  A
C516        C517   1.497       .  S
C517        F521   1.384       .  S
C517        F522   1.380       .  S
C517        F523   1.381       .  S
C520        F524   1.380       .  S
C520        F525   1.377       .  S
C520        F526   1.385       .  S
C527        C528   1.395       .  A
C527       C1090   1.407   1_554  A
C527        H534   1.082       .  S
C528        C529   1.421       .  A
C529       C1088   1.412   1_554  A
C529        C536   1.513       .  S
C530        C531   1.401       .  A
C530       C1087   1.412       .  A
C530        H535   1.083       .  S
C531        C532   1.428       .  A
C532       C1085   1.407       .  A
C532        C533   1.523       .  S
C533        F537   1.385       .  S
C533        F538   1.375       .  S
C533        F539   1.382       .  S
C536        F540   1.376       .  S
C536        F541   1.381       .  S
C536        F542   1.385       .  S
C543        C544   1.388       .  A
C543        C548   1.397       .  A
C543        H550   1.082       .  S
C544        C545   1.409       .  A
C545        C546   1.408       .  A
C545        C552   1.515       .  S
C546        C547   1.409       .  A
C546        H551   1.083       .  S
C547        C548   1.431       .  A
C548        C549   1.520       .  S
C549        F553   1.380       .  S
C549        F554   1.378       .  S
C549        F555   1.375       .  S
C552        F556   1.381       .  S
C552        F557   1.380       .  S
C552        F558   1.384       .  S
O559        C567   1.254       .  A
O559       Co579   2.015       .  S
O560        C568   1.257       .  A
O560       Co580   1.936       .  S
O561        C569   1.279       .  A
O561       Co581   2.037       .  S
O562        C570   1.246       .  A
O562       Co582   1.972       .  S
O563        C569   1.255       .  A
O563       Co580   1.957       .  S
O564        C570   1.259       .  A
O564       Co579   2.024       .  S
O565        C568   1.271       .  A
O565       Co582   2.038       .  S
O566        C567   1.249       .  A
O566       Co581   1.985       .  S
C567       C1022   1.513       .  S
C568        C990   1.488       .  S
C569       C1089   1.486       .  S
C570       C3286   1.496       .  S
O571        C584   1.289       .  A
O571       Co579   2.052       .  S
O572        C585   1.268       .  A
O572       Co580   2.036       .  S
O573        C586   1.280       .  A
O573       Co581   1.924       .  S
O574        C587   1.261       .  A
O574       Co582   1.989       .  S
O575        C587   1.270       .  A
O575       Co580   2.024       .  S
O576        C586   1.286       .  A
O576       Co579   2.040       .  S
O577        C584   1.278       .  A
O577       Co582   1.917       .  S
O578        C585   1.259       .  A
O578       Co581   1.997       .  S
Co579       O583   2.232       .  S
Co580       O583   2.079       .  S
Co581       O583   1.997       .  S
Co582       O583   1.988       .  S
C584       C1009   1.490       .  S
C585       C1073   1.504       .  S
C586       C1105   1.488       .  S
C587       C1041   1.508       .  S
O588        C596   1.250       .  A
O588       Co608   1.960       .  S
O589        C597   1.268       .  A
O589       Co609   1.985       .  S
O590        C598   1.302       .  A
O590      Co2842   2.113       .  S
O591        C599   1.262       .  A
O591       Co611   2.004       .  S
O592       C2830   1.246       .  A
O592       Co609   1.847       .  S
O593        C599   1.251       .  A
O593       Co608   1.943       .  S
O594        C597   1.280       .  A
O594       Co611   2.037       .  S
O595        C596   1.276       .  A
O595       Co610   2.074       .  S
C596        C910   1.511       .  S
C597       C2141   1.513   1_545  S
C598       O2824   1.246       .  A
C598        C958   1.477   1_655  S
C599        C945   1.461       .  S
O600        C613   1.277       .  A
O600       Co608   2.016       .  S
O601        C614   1.304       .  A
O601       Co609   2.119       .  S
O602        C615   1.264       .  A
O602       Co610   1.976       .  S
O603        C616   1.253       .  A
O603       Co611   1.987       .  S
O604        C616   1.251       .  A
O604       Co609   1.990       .  S
O605        C615   1.275       .  A
O605       Co608   2.036       .  S
O606        C613   1.254       .  A
O606       Co611   1.935       .  S
O607        C614   1.272       .  A
O607       Co610   1.891       .  S
Co608       O612   2.015       .  S
Co609       O612   1.977       .  S
Co610      O2822   2.113       .  S
Co610       O612   2.041       .  S
Co611       O612   2.069       .  S
C613        C974   1.485       .  S
C614        C894   1.500       .  S
C615       C1038   1.491       .  S
C616        C926   1.482       .  S
O617        C625   1.289       .  A
O617       Co637   2.095       .  S
O618        C626   1.265       .  A
O618       Co638   2.016       .  S
O619        C627   1.267       .  A
O619       Co639   1.971       .  S
O620        C628   1.249       .  A
O620       Co640   1.946       .  S
O621        C627   1.288       .  A
O621       Co638   2.054       .  S
O622        C628   1.268       .  A
O622       Co637   2.036       .  S
O623        C626   1.258       .  A
O623       Co640   1.950       .  S
O624        C625   1.271       .  A
O624       Co639   1.946       .  S
C625       C3110   1.513   1_455  S
C626        C798   1.477       .  S
C627       C1946   1.519       .  S
C628        C993   1.478       .  S
O629        C642   1.264       .  A
O629       Co637   1.963       .  S
O630        C643   1.253       .  A
O630       Co638   1.959       .  S
O631        C644   1.286       .  A
O631       Co639   2.076       .  S
O632        C645   1.274       .  A
O632       Co640   2.039       .  S
O633        C645   1.270       .  A
O633       Co638   2.000       .  S
O634        C644   1.270       .  A
O634       Co637   1.923       .  S
O635        C642   1.281       .  A
O635       Co640   2.041       .  S
O636        C643   1.272       .  A
O636       Co639   2.024       .  S
Co637       O641   2.049       .  S
Co638       O641   2.055       .  S
Co639       O641   2.037       .  S
Co640       O641   2.027       .  S
C642        C846   1.482       .  S
C643        C817   1.501       .  S
C644       C1006   1.506       .  S
C645        C865   1.530       .  S
O646        C654   1.269       .  A
O646       Co666   2.062       .  S
O647        C655   1.268       .  A
O647       Co667   2.026       .  S
O648        C656   1.247       .  A
O648       Co668   1.931       .  S
O649        C657   1.260       .  A
O649       Co669   1.862       .  S
O650        C656   1.276       .  A
O650       Co667   2.034       .  S
O651        C657   1.300       .  A
O651       Co666   2.110       .  S
O652        C655   1.268       .  A
O652       Co669   1.974       .  S
O653        C654   1.239       .  A
O653       Co668   1.927       .  S
C654        C766   1.488       .  S
C655       C2173   1.509   1_545  S
C656        C814   1.483       .  S
C657        C961   1.490       .  S
O658        C671   1.272       .  A
O658       Co666   1.914       .  S
O659        C672   1.252       .  A
O659       Co667   1.923       .  S
O660        C673   1.278       .  A
O660       Co668   2.045       .  S
O661        C674   1.260       .  A
O661       Co669   2.005       .  S
O662        C674   1.252       .  A
O662       Co667   1.979       .  S
O663        C673   1.269       .  A
O663       Co666   1.981       .  S
O664        C671   1.293       .  A
O664       Co669   2.082       .  S
O665        C672   1.268       .  A
O665       Co668   2.015       .  S
Co666       O670   2.048       .  S
Co667       O670   2.047       .  S
Co668       O670   2.041       .  S
Co669       O670   1.996       .  S
C671        C782   1.480       .  S
C672        C977   1.480       .  S
C673       C1070   1.493       .  S
C674        C801   1.472       .  S
O675        C683   1.268       .  A
O675       Co695   2.015       .  S
O676        C684   1.296       .  A
O676       Co696   2.055       .  S
O677        C685   1.281       .  A
O677       Co697   1.945       .  S
O678        C686   1.250       .  A
O678       Co698   1.980       .  S
O679        C685   1.290       .  A
O679       Co696   2.044       .  S
O680        C686   1.268       .  A
O680       Co695   2.066       .  S
O681        C684   1.279       .  A
O681       Co698   1.926       .  S
O682        C683   1.262       .  A
O682       Co697   1.992       .  S
C683       C2969   1.491   1_455  S
C684        C785   1.483       .  S
C685        C897   1.499       .  S
C686        C833   1.495       .  S
O687        C700   1.245       .  A
O687       Co695   1.949       .  S
O688        C701   1.256       .  A
O688       Co696   2.004       .  S
O689        C702   1.279       .  A
O689       Co697   2.051       .  S
O690        C703   1.238       .  A
O690       Co698   1.948       .  S
O691        C703   1.253       .  A
O691       Co696   1.986       .  S
O692        C702   1.252       .  A
O692       Co695   1.969       .  S
O693        C700   1.274       .  A
O693       Co698   2.053       .  S
O694        C701   1.248       .  A
O694       Co697   1.957       .  S
Co695       O699   2.055       .  S
Co696       O699   2.230       .  S
Co697       O699   1.966       .  S
Co698       O699   1.949       .  S
C700        C769   1.487       .  S
C701        C849   1.481       .  S
C702        C913   1.509       .  S
C703        C750   1.478       .  S
O704        C712   1.256       .  A
O704       Co724   1.964       .  S
O705        C713   1.267       .  A
O705       Co725   1.964       .  S
O706        C714   1.307       .  A
O706       Co726   2.095       .  S
O707        C715   1.291       .  A
O707       Co727   2.077       .  S
O708        C714   1.270       .  A
O708       Co725   1.929       .  S
O709        C715   1.254       .  A
O709       Co724   1.932       .  S
O710        C713   1.268       .  A
O710       Co727   2.008       .  S
O711        C712   1.287       .  A
O711       Co726   2.052       .  S
C712        C881   1.489       .  S
C713        C929   1.492       .  S
C714       C1086   1.486       .  S
C715       C1850   1.501       .  S
O716        C729   1.254       .  A
O716       Co724   1.983       .  S
O717        C730   1.285       .  A
O717       Co725   2.076       .  S
O718        C731   1.261       .  A
O718       Co726   1.997       .  S
O719        C732   1.257       .  A
O719       Co727   1.970       .  S
O720        C732   1.274       .  A
O720       Co725   2.058       .  S
O721        C731   1.253       .  A
O721       Co724   1.969       .  S
O722        C729   1.244       .  A
O722       Co727   1.961       .  S
O723        C730   1.262       .  A
O723       Co726   1.897       .  S
Co724       O728   2.049       .  S
Co725       O728   2.029       .  S
Co726       O728   2.015       .  S
Co727       O728   2.026       .  S
C729        C942   1.451       .  S
C730        C753   1.463       .  S
C731       C1102   1.459       .  S
C732        C862   1.525       .  S
C733        C734   1.397       .  A
C733        C738   1.405       .  A
C733        H740   1.076       .  S
C734       C1831   1.501   1_545  S
C734        C735   1.436       .  A
C735        C736   1.411       .  A
C735        C742   1.524       .  S
C736        C737   1.397       .  A
C736       H2973   1.083       .  S
C737       C2915   1.491       .  S
C737        C738   1.419       .  A
C738        C739   1.505       .  S
C739        F743   1.385       .  S
C739        F744   1.373       .  S
C739        F745   1.378       .  S
H741       C2968   1.083   1_455  S
C742       F1862   1.381   1_545  S
C742       F1863   1.384   1_545  S
C742       F2980   1.385       .  S
F746       C1858   1.381       .  S
F747       C1858   1.384       .  S
F748       C2974   1.385       .  S
C749        C750   1.403       .  A
C749        C754   1.393       .  A
C749        H756   1.075       .  S
C750        C751   1.422       .  A
C751        C752   1.403       .  A
C751        C758   1.521       .  S
C752        C753   1.402       .  A
C752        H757   1.082       .  S
C753        C754   1.410       .  A
C754        C755   1.519       .  S
C755        F759   1.384       .  S
C755        F760   1.375       .  S
C755        F761   1.378       .  S
C758        F762   1.383       .  S
C758        F763   1.383       .  S
C758        F764   1.385       .  S
C765        C766   1.388       .  A
C765        C770   1.396       .  A
C765        H772   1.073       .  S
C766        C767   1.433       .  A
C767        C768   1.420       .  A
C767        C774   1.518       .  S
C768        C769   1.402       .  A
C768        H773   1.083       .  S
C769        C770   1.422       .  A
C770        C771   1.524       .  S
C771        F775   1.379       .  S
C771        F776   1.365       .  S
C771        F777   1.375       .  S
C774        F778   1.381       .  S
C774        F779   1.379       .  S
C774        F780   1.385       .  S
C781        C782   1.400       .  A
C781        H788   1.079       .  S
C782        C783   1.413       .  A
C783        C790   1.514       .  S
C784        C785   1.408       .  A
C784        H789   1.083       .  S
C785        C786   1.419       .  A
C786        C787   1.519       .  S
C787        F791   1.384       .  S
C787        F792   1.382       .  S
C787        F793   1.378       .  S
C790        F794   1.381       .  S
C790        F795   1.383       .  S
C797        C802   1.392   1_554  A
C797        H804   1.084       .  S
C798       C1915   1.417       .  A
C799       C1914   1.417       .  A
C799        C800   1.413       .  A
C799        C806   1.510       .  S
C800        H805   1.083       .  S
C801       C1918   1.413       .  A
C802       C1917   1.413       .  A
C802        C803   1.508       .  S
C803        F807   1.385       .  S
C803        F808   1.383       .  S
C803        F809   1.380       .  S
C806        F810   1.383       .  S
C806        F811   1.375       .  S
C806        F812   1.384       .  S
C813        C814   1.398       .  A
C813        C818   1.409   1_545  A
C813        H820   1.083       .  S
C814        C815   1.430       .  A
C815       C1932   1.400   1_545  A
C815        C822   1.521       .  S
C816       C1931   1.400       .  A
C816        C817   1.399       .  A
C816        H821   1.085       .  S
C817       C1934   1.428       .  A
C818       C1933   1.428       .  A
C818        C819   1.513       .  S
C819        F823   1.385       .  S
C819        F824   1.384       .  S
C819       F1941   1.383       .  S
C822        F826   1.368       .  S
C822        F827   1.384       .  S
C822       F1944   1.384       .  S
F825       C1935   1.383       .  S
F828       C1938   1.384       .  S
C829        C830   1.405       .  A
C829        C834   1.406       .  A
C829        H836   1.081       .  S
C830       C1743   1.519   1_545  S
C830        C831   1.432       .  A
C831        C832   1.414       .  A
C831        C838   1.503       .  S
C832        C833   1.394       .  A
C832        H837   1.083       .  S
C833        C834   1.422       .  A
C834        C835   1.511       .  S
C835        F839   1.385       .  S
C835        F840   1.378       .  S
C835        F841   1.380       .  S
C838       F1958   1.376   1_545  S
C838       F1959   1.383   1_545  S
C838        F844   1.385       .  S
F842       C1954   1.376       .  S
F843       C1954   1.383       .  S
C845        C846   1.399       .  A
C845        C850   1.408       .  A
C845        H852   1.084       .  S
C846        C847   1.425       .  A
C847        C848   1.400       .  A
C847        C854   1.512       .  S
C848        C849   1.394       .  A
C848        H853   1.083       .  S
C849        C850   1.416       .  A
C850        C851   1.501       .  S
C851        F855   1.384       .  S
C851        F856   1.379       .  S
C851        F857   1.383       .  S
C854        F858   1.377       .  S
C854        F859   1.374       .  S
C854        F860   1.385       .  S
C861        C862   1.410       .  A
C861        C866   1.412       .  A
C861        H868   1.081       .  S
C862        C863   1.422       .  A
C863        C864   1.430       .  A
C863        C870   1.516       .  S
C864        C865   1.419       .  A
C864        H869   1.082       .  S
C865        C866   1.425       .  A
C866        C867   1.514       .  S
C867        F871   1.385       .  S
C867        F872   1.383       .  S
C867        F873   1.376       .  S
C870        F874   1.382       .  S
C870        F875   1.383       .  S
C870        F876   1.384       .  S
C877        C878   1.408       .  A
C877        C882   1.416       .  A
C877       H3116   1.074       .  S
C878       C2857   1.513       .  S
C878        C879   1.420       .  A
C879        C880   1.415       .  A
C879        C886   1.509       .  S
C880        C881   1.405       .  A
C880        H885   1.083       .  S
C881        C882   1.414       .  A
C882        C883   1.513       .  S
C883        F887   1.384       .  S
C883        F888   1.382       .  S
C883        F889   1.378       .  S
H884       C3109   1.074       .  S
C886        F890   1.381       .  S
C886        F891   1.380       .  S
C886        F892   1.384       .  S
C893       C3126   1.405   1_455  A
C893        H900   1.083       .  S
C894       C3125   1.405       .  A
C895       C3128   1.414       .  A
C895        C902   1.509       .  S
C896       C3127   1.414       .  A
C896        C897   1.403   1_655  A
C896       H3133   1.079       .  S
C897        C898   1.423       .  A
C899        F903   1.385   1_554  S
H901       C3128   1.079       .  S
C902        F906   1.379       .  S
C902        F908   1.384       .  S
C909       C3142   1.405   1_455  A
C909        C914   1.423       .  A
C909        H916   1.083       .  S
C910       C3141   1.405       .  A
C910        C911   1.433       .  A
C911        C912   1.410       .  A
C911        C918   1.518       .  S
C912       C3145   1.396       .  A
C912        H917   1.083       .  S
C913       C3144   1.396   1_455  A
C913        C914   1.431       .  A
C914        C915   1.524       .  S
C915        F919   1.385       .  S
C915        F920   1.383       .  S
C915        F921   1.377       .  S
C918        F922   1.383       .  S
C918        F923   1.374       .  S
C918        F924   1.383       .  S
C925        C930   1.410       .  A
C925        H932   1.082       .  S
C926       C2043   1.417   1_545  A
C927       C2042   1.417       .  A
C927        C928   1.397   1_556  A
C927        C934   1.512       .  S
C928        H933   1.081       .  S
C929       C2046   1.428       .  A
C930       C2045   1.428   1_545  A
C930        C931   1.515       .  S
C931        F935   1.384       .  S
C931        F936   1.375       .  S
C931        F937   1.382       .  S
C934        F938   1.380       .  S
C934        F939   1.381       .  S
C934        F940   1.385       .  S
C941       C2058   1.392   1_545  A
C941        C946   1.391       .  A
C941        H948   1.085       .  S
C942       C2057   1.392       .  A
C942        C943   1.410       .  A
C943       C2060   1.404       .  A
C943        C950   1.512       .  S
C944       C2059   1.404       .  A
C944        C945   1.402   1_565  A
C944       H2065   1.083       .  S
C945        C946   1.417       .  A
C946        C947   1.513       .  S
C947        F951   1.385       .  S
C947        F952   1.381       .  S
C947        F953   1.383       .  S
H949       C2060   1.083       .  S
C950        F954   1.383       .  S
C950        F955   1.382       .  S
C950        F956   1.384       .  S
C957        C958   1.394       .  A
C957        C962   1.401       .  A
C957        H964   1.082       .  S
C958        C959   1.429       .  A
C959        C960   1.399       .  A
C959        C966   1.528       .  S
C960        C961   1.403       .  A
C960        H965   1.081       .  S
C961        C962   1.414       .  A
C962        C963   1.494       .  S
C963        F967   1.381       .  S
C963        F968   1.382       .  S
C963        F969   1.384       .  S
C966        F970   1.384   1_455  S
C966        F971   1.384       .  S
C966        F972   1.385       .  S
C973        C974   1.416       .  A
C973        C978   1.406       .  A
C973        H980   1.082       .  S
C974        C975   1.433       .  A
C975        C976   1.396       .  A
C975        C982   1.538       .  S
C976        C977   1.404       .  A
C976        H981   1.085       .  S
C977        C978   1.411       .  A
C978        C979   1.520       .  S
C979        F983   1.385       .  S
C979        F984   1.383       .  S
C979        F985   1.384       .  S
C982        F986   1.385       .  S
C982        F987   1.374       .  S
C982        F988   1.384       .  S
C989        C990   1.402       .  A
C989       C2668   1.388   1_556  A
C989        H996   1.083       .  S
C990       C3223   1.420       .  A
C991       C3222   1.420   1_455  A
C991        C992   1.421   1_556  A
C991        C998   1.514       .  S
C992        H997   1.083       .  S
C993        C994   1.408       .  A
C994       C2663   1.388   1_455  A
C994        C995   1.506   1_455  S
C995        F999   1.385       .  S
C995       F1000   1.381   1_655  S
C995       F1001   1.380       .  S
C998       F1002   1.383       .  S
C998       F3235   1.383   1_455  S
C998       F1004   1.384       .  S
F1003      C3230   1.383       .  S
C1005      C3238   1.405       .  A
C1005      C1010   1.414       .  A
C1005      H1012   1.084       .  S
C1006      C3237   1.405   1_455  A
C1006      C1007   1.425       .  A
C1007      C1008   1.402       .  A
C1007      C1014   1.505       .  S
C1008      C3241   1.395   1_455  A
C1008      H1013   1.084       .  S
C1009      C3240   1.395       .  A
C1009      C1010   1.429       .  A
C1010      C1011   1.520       .  S
C1011      F1015   1.383       .  S
C1011      F1016   1.378       .  S
C1011      F1017   1.383       .  S
C1014      F1018   1.377       .  S
C1014      F1019   1.382       .  S
C1014      F1020   1.379       .  S
C1021      C1022   1.404       .  A
C1021      C1026   1.413       .  A
C1021      H1028   1.069       .  S
C1022      C1023   1.423       .  A
C1023      C1024   1.416       .  A
C1023      C1030   1.520       .  S
C1024      C1025   1.411       .  A
C1024      H1029   1.078       .  S
C1025      C1713   1.513       .  S
C1025      C1026   1.422       .  A
C1026      C2143   1.520       .  S
C1027      C2142   1.520   1_545  S
C1027      F1031   1.384       .  S
C1027      F1032   1.382       .  S
C1027      F1033   1.384       .  S
C1030      F1034   1.379       .  S
C1030      F1035   1.382       .  S
C1030      F1036   1.385       .  S
C1037      C1038   1.399       .  A
C1037      C1042   1.410       .  A
C1037      H1044   1.084       .  S
C1038      C1039   1.414       .  A
C1039      C1040   1.404       .  A
C1039      C1046   1.501       .  S
C1040      C1041   1.402       .  A
C1040      H1045   1.078       .  S
C1041      C1042   1.425       .  A
C1042      C1043   1.507       .  S
C1043      F3279   1.385       .  S
C1043      F1048   1.382       .  S
C1043      F1049   1.368       .  S
C1046      F1050   1.376       .  S
C1046      F1051   1.372       .  S
C1046      F1052   1.384       .  S
F1047      C3275   1.385   1_455  S
C1053      C1054   1.401       .  A
C1053      C1058   1.414       .  A
C1053      H1060   1.085       .  S
C1054      C2802   1.496       .  S
C1054      C1055   1.411       .  A
C1055      C1056   1.408       .  A
C1055      C1062   1.502       .  S
C1056      C1057   1.410       .  A
C1056      H2177   1.082       .  S
C1057      C1771   1.509       .  S
C1057      C1058   1.435       .  A
C1058      C1059   1.522       .  S
C1059      F1063   1.378       .  S
C1059      F1064   1.379       .  S
C1059      F1065   1.375       .  S
H1061      C2172   1.082   1_545  S
C1062      F3298   1.384   1_455  S
C1062      F3299   1.381   1_455  S
C1062      F1068   1.384       .  S
F1066      C3294   1.384       .  S
F1067      C3294   1.381       .  S
C1069      C1070   1.397       .  A
C1069      C1074   1.412       .  A
C1069      H1076   1.083       .  S
C1070      C1071   1.424       .  A
C1071      C1072   1.416       .  A
C1071      C1078   1.516       .  S
C1072      C1073   1.403       .  A
C1072      H1077   1.083       .  S
C1073      C1074   1.418       .  A
C1074      C1075   1.497       .  S
C1075      F1079   1.384       .  S
C1075      F1080   1.380       .  S
C1075      F1081   1.381       .  S
C1078      F1082   1.380       .  S
C1078      F1083   1.377       .  S
C1078      F1084   1.385       .  S
C1085      C1086   1.395       .  A
C1085      H1092   1.082       .  S
C1086      C1087   1.421       .  A
C1087      C1094   1.513       .  S
C1088      C1089   1.401       .  A
C1088      H1093   1.083       .  S
C1089      C1090   1.428       .  A
C1090      C1091   1.523       .  S
C1091      F1095   1.385       .  S
C1091      F1096   1.375       .  S
C1091      F1097   1.382       .  S
C1094      F1098   1.376       .  S
C1094      F1099   1.381       .  S
C1094      F1100   1.385       .  S
C1101      C1102   1.388       .  A
C1101      C1106   1.397       .  A
C1101      H1108   1.082       .  S
C1102      C1103   1.409       .  A
C1103      C1104   1.408       .  A
C1103      C1110   1.515       .  S
C1104      C1105   1.409       .  A
C1104      H1109   1.083       .  S
C1105      C1106   1.431       .  A
C1106      C1107   1.520       .  S
C1107      F1111   1.380       .  S
C1107      F1112   1.378       .  S
C1107      F1113   1.375       .  S
C1110      F1114   1.381       .  S
C1110      F1115   1.380       .  S
C1110      F1116   1.384       .  S
O1117      C1125   1.254       .  A
O1117     Co1137   2.015       .  S
O1118      C1126   1.257       .  A
O1118     Co1138   1.936       .  S
O1119      C1127   1.279       .  A
O1119     Co1139   2.037       .  S
O1120      C1128   1.246       .  A
O1120     Co1140   1.972       .  S
O1121      C1127   1.255       .  A
O1121     Co1138   1.957       .  S
O1122      C1128   1.259       .  A
O1122     Co1137   2.024       .  S
O1123      C1126   1.271       .  A
O1123     Co1140   2.038       .  S
O1124      C1125   1.249       .  A
O1124     Co1139   1.985       .  S
C1125      C1580   1.513       .  S
C1126      C1548   1.488       .  S
C1127      C1647   1.486       .  S
C1128      C3844   1.496       .  S
O1129      C1142   1.289       .  A
O1129     Co1137   2.052       .  S
O1130      C1143   1.268       .  A
O1130     Co1138   2.036       .  S
O1131      C1144   1.280       .  A
O1131     Co1139   1.924       .  S
O1132      C1145   1.261       .  A
O1132     Co1140   1.989       .  S
O1133      C1145   1.270       .  A
O1133     Co1138   2.024       .  S
O1134      C1144   1.286       .  A
O1134     Co1137   2.040       .  S
O1135      C1142   1.278       .  A
O1135     Co1140   1.917       .  S
O1136      C1143   1.259       .  A
O1136     Co1139   1.997       .  S
Co1137     O1141   2.232       .  S
Co1138     O1141   2.079       .  S
Co1139     O1141   1.997       .  S
Co1140     O1141   1.988       .  S
C1142      C1567   1.490       .  S
C1143      C1631   1.504       .  S
C1144      C1663   1.488       .  S
C1145      C1599   1.508       .  S
O1146      C1154   1.250       .  A
O1146     Co1166   1.960       .  S
O1147      C1155   1.268       .  A
O1147     Co1167   1.985       .  S
O1148      C1156   1.302       .  A
O1148     Co3400   2.113       .  S
O1149      C1157   1.262       .  A
O1149     Co1169   2.004       .  S
O1150      C3388   1.246       .  A
O1150     Co1167   1.847       .  S
O1151      C1157   1.251       .  A
O1151     Co1166   1.943       .  S
O1152      C1155   1.280       .  A
O1152     Co1169   2.037       .  S
O1153      C1154   1.276       .  A
O1153     Co1168   2.074       .  S
C1154      C1468   1.511       .  S
C1156      O3382   1.246       .  A
C1156      C1516   1.477   1_655  S
C1157      C1503   1.461       .  S
O1158      C1171   1.277       .  A
O1158     Co1166   2.016       .  S
O1159      C1172   1.304       .  A
O1159     Co1167   2.119       .  S
O1160      C1173   1.264       .  A
O1160     Co1168   1.976       .  S
O1161      C1174   1.253       .  A
O1161     Co1169   1.987       .  S
O1162      C1174   1.251       .  A
O1162     Co1167   1.990       .  S
O1163      C1173   1.275       .  A
O1163     Co1166   2.036       .  S
O1164      C1171   1.254       .  A
O1164     Co1169   1.935       .  S
O1165      C1172   1.272       .  A
O1165     Co1168   1.891       .  S
Co1166     O1170   2.015       .  S
Co1167     O1170   1.977       .  S
Co1168     O3380   2.113       .  S
Co1168     O1170   2.041       .  S
Co1169     O1170   2.069       .  S
C1171      C1532   1.485       .  S
C1172      C1452   1.500       .  S
C1173      C1596   1.491       .  S
C1174      C1484   1.482       .  S
O1175      C1183   1.289       .  A
O1175     Co1195   2.095       .  S
O1176      C1184   1.265       .  A
O1176     Co1196   2.016       .  S
O1177      C1185   1.267       .  A
O1177     Co1197   1.971       .  S
O1178      C1186   1.249       .  A
O1178     Co1198   1.946       .  S
O1179      C1185   1.288       .  A
O1179     Co1196   2.054       .  S
O1180      C1186   1.268       .  A
O1180     Co1195   2.036       .  S
O1181      C1184   1.258       .  A
O1181     Co1198   1.950       .  S
O1182      C1183   1.271       .  A
O1182     Co1197   1.946       .  S
C1183      C3668   1.513   1_455  S
C1184      C1356   1.477   1_565  S
C1186      C1551   1.478       .  S
O1187      C1200   1.264       .  A
O1187     Co1195   1.963       .  S
O1188      C1201   1.253       .  A
O1188     Co1196   1.959       .  S
O1189      C1202   1.286       .  A
O1189     Co1197   2.076       .  S
O1190      C1203   1.274       .  A
O1190     Co1198   2.039       .  S
O1191      C1203   1.270       .  A
O1191     Co1196   2.000       .  S
O1192      C1202   1.270       .  A
O1192     Co1195   1.923       .  S
O1193      C1200   1.281       .  A
O1193     Co1198   2.041       .  S
O1194      C1201   1.272       .  A
O1194     Co1197   2.024       .  S
Co1195     O1199   2.049       .  S
Co1196     O1199   2.055       .  S
Co1197     O1199   2.037       .  S
Co1198     O1199   2.027       .  S
C1200      C1404   1.482       .  S
C1201      C1375   1.501       .  S
C1202      C1564   1.506       .  S
C1203      C1423   1.530       .  S
O1204      C1212   1.269       .  A
O1204     Co1224   2.062       .  S
O1205      C1213   1.268       .  A
O1205     Co1225   2.026       .  S
O1206      C1214   1.247       .  A
O1206     Co1226   1.931       .  S
O1207      C1215   1.260       .  A
O1207     Co1227   1.862       .  S
O1208      C1214   1.276       .  A
O1208     Co1225   2.034       .  S
O1209      C1215   1.300       .  A
O1209     Co1224   2.110       .  S
O1210      C1213   1.268       .  A
O1210     Co1227   1.974       .  S
O1211      C1212   1.239       .  A
O1211     Co1226   1.927       .  S
C1212      C1324   1.488       .  S
C1214      C1372   1.483       .  S
C1215      C1519   1.490       .  S
O1216      C1229   1.272       .  A
O1216     Co1224   1.914       .  S
O1217      C1230   1.252       .  A
O1217     Co1225   1.923       .  S
O1218      C1231   1.278       .  A
O1218     Co1226   2.045       .  S
O1219      C1232   1.260       .  A
O1219     Co1227   2.005       .  S
O1220      C1232   1.252       .  A
O1220     Co1225   1.979       .  S
O1221      C1231   1.269       .  A
O1221     Co1224   1.981       .  S
O1222      C1229   1.293       .  A
O1222     Co1227   2.082       .  S
O1223      C1230   1.268       .  A
O1223     Co1226   2.015       .  S
Co1224     O1228   2.048       .  S
Co1225     O1228   2.047       .  S
Co1226     O1228   2.041       .  S
Co1227     O1228   1.996       .  S
C1229      C1340   1.480       .  S
C1230      C1535   1.480       .  S
C1231      C1628   1.493       .  S
C1232      C1359   1.472       .  S
O1233      C1241   1.268       .  A
O1233     Co1253   2.015       .  S
O1234      C1242   1.296       .  A
O1234     Co1254   2.055       .  S
O1235      C1243   1.281       .  A
O1235     Co1255   1.945       .  S
O1236      C1244   1.250       .  A
O1236     Co1256   1.980       .  S
O1237      C1243   1.290       .  A
O1237     Co1254   2.044       .  S
O1238      C1244   1.268       .  A
O1238     Co1253   2.066       .  S
O1239      C1242   1.279       .  A
O1239     Co1256   1.926       .  S
O1240      C1241   1.262       .  A
O1240     Co1255   1.992       .  S
C1241      C3527   1.491   1_455  S
C1242      C1343   1.483       .  S
C1243      C1455   1.499       .  S
C1244      C1391   1.495       .  S
O1245      C1258   1.245       .  A
O1245     Co1253   1.949       .  S
O1246      C1259   1.256       .  A
O1246     Co1254   2.004       .  S
O1247      C1260   1.279       .  A
O1247     Co1255   2.051       .  S
O1248      C1261   1.238       .  A
O1248     Co1256   1.948       .  S
O1249      C1261   1.253       .  A
O1249     Co1254   1.986       .  S
O1250      C1260   1.252       .  A
O1250     Co1253   1.969       .  S
O1251      C1258   1.274       .  A
O1251     Co1256   2.053       .  S
O1252      C1259   1.248       .  A
O1252     Co1255   1.957       .  S
Co1253     O1257   2.055       .  S
Co1254     O1257   2.230       .  S
Co1255     O1257   1.966       .  S
Co1256     O1257   1.949       .  S
C1258      C1327   1.487       .  S
C1259      C1407   1.481       .  S
C1260      C1471   1.509       .  S
C1261      C1308   1.478       .  S
O1262      C1270   1.256       .  A
O1262     Co1282   1.964       .  S
O1263      C1271   1.267       .  A
O1263     Co1283   1.964       .  S
O1264      C1272   1.307       .  A
O1264     Co1284   2.095       .  S
O1265      C1273   1.291       .  A
O1265     Co1285   2.077       .  S
O1266      C1272   1.270       .  A
O1266     Co1283   1.929       .  S
O1267      C1273   1.254       .  A
O1267     Co1282   1.932       .  S
O1268      C1271   1.268       .  A
O1268     Co1285   2.008       .  S
O1269      C1270   1.287       .  A
O1269     Co1284   2.052       .  S
C1270      C1439   1.489       .  S
C1271      C1487   1.492       .  S
C1272      C1644   1.486       .  S
O1274      C1287   1.254       .  A
O1274     Co1282   1.983       .  S
O1275      C1288   1.285       .  A
O1275     Co1283   2.076       .  S
O1276      C1289   1.261       .  A
O1276     Co1284   1.997       .  S
O1277      C1290   1.257       .  A
O1277     Co1285   1.970       .  S
O1278      C1290   1.274       .  A
O1278     Co1283   2.058       .  S
O1279      C1289   1.253       .  A
O1279     Co1282   1.969       .  S
O1280      C1287   1.244       .  A
O1280     Co1285   1.961       .  S
O1281      C1288   1.262       .  A
O1281     Co1284   1.897       .  S
Co1282     O1286   2.049       .  S
Co1283     O1286   2.029       .  S
Co1284     O1286   2.015       .  S
Co1285     O1286   2.026       .  S
C1287      C1500   1.451       .  S
C1288      C1311   1.463       .  S
C1289      C1660   1.459       .  S
C1290      C1420   1.525       .  S
C1291      C1292   1.397       .  A
C1291      C1296   1.405       .  A
C1291      H1298   1.076       .  S
C1292      C1293   1.436       .  A
C1293      C1294   1.411       .  A
C1293      C1300   1.524       .  S
C1294      C1295   1.397       .  A
C1294      H3531   1.083       .  S
C1295      C3473   1.491       .  S
C1295      C1296   1.419       .  A
C1296      C1297   1.505       .  S
C1297      F1301   1.385       .  S
C1297      F1302   1.373       .  S
C1297      F1303   1.378       .  S
H1299      C3526   1.083   1_455  S
C1300      F3538   1.385       .  S
F1306      C3532   1.385       .  S
C1307      C1308   1.403       .  A
C1307      C1312   1.393       .  A
C1307      H1314   1.075       .  S
C1308      C1309   1.422       .  A
C1309      C1310   1.403       .  A
C1309      C1316   1.521       .  S
C1310      C1311   1.402       .  A
C1310      H1315   1.082       .  S
C1311      C1312   1.410       .  A
C1312      C1313   1.519       .  S
C1313      F1317   1.384       .  S
C1313      F1318   1.375       .  S
C1313      F1319   1.378       .  S
C1316      F1320   1.383       .  S
C1316      F1321   1.383       .  S
C1316      F1322   1.385       .  S
C1323      C1324   1.388       .  A
C1323      C1328   1.396       .  A
C1323      H1330   1.073       .  S
C1324      C1325   1.433       .  A
C1325      C1326   1.420       .  A
C1325      C1332   1.518       .  S
C1326      C1327   1.402       .  A
C1326      H1331   1.083       .  S
C1327      C1328   1.422       .  A
C1328      C1329   1.524       .  S
C1329      F1333   1.379       .  S
C1329      F1334   1.365       .  S
C1329      F1335   1.375       .  S
C1332      F1336   1.381       .  S
C1332      F1337   1.379       .  S
C1332      F1338   1.385       .  S
C1339      C1340   1.400       .  A
C1339      C1902   1.401       .  A
C1339      H1346   1.079       .  S
C1340      C1341   1.413       .  A
C1341      C1900   1.414       .  A
C1341      C1348   1.514       .  S
C1342      C1899   1.414   1_554  A
C1342      C1343   1.408       .  A
C1342      H1347   1.083       .  S
C1343      C1344   1.419       .  A
C1344      C1897   1.401   1_554  A
C1344      C1345   1.519       .  S
C1345      F1349   1.384       .  S
C1345      F1350   1.382       .  S
C1345      F1351   1.378       .  S
C1348      F1352   1.381       .  S
C1348      F1353   1.383       .  S
C1348      F1912   1.384       .  S
F1354      C1906   1.384   1_554  S
C1355      C1914   1.396   1_565  A
C1355      C1360   1.392   1_565  A
C1355      H1362   1.084       .  S
C1356      C1913   1.396   1_545  A
C1357      C1358   1.413       .  A
C1357      C1364   1.510       .  S
C1358      C1917   1.403   1_554  A
C1358      H1363   1.083       .  S
C1359      C1916   1.403       .  A
C1360      C1361   1.508   1_545  S
C1361      F1365   1.385       .  S
C1361      F1366   1.383       .  S
C1361      F1367   1.380       .  S
C1364      F1368   1.383       .  S
C1364      F1369   1.375       .  S
C1364      F1370   1.384       .  S
C1371      C1372   1.398       .  A
C1371      C1376   1.409       .  A
C1371      H1378   1.083       .  S
C1372      C1373   1.430       .  A
C1373      C1380   1.521       .  S
C1374      C1375   1.399       .  A
C1374      H1379   1.085       .  S
C1376      C1377   1.513       .  S
C1377      F1381   1.385       .  S
C1377      F1382   1.384       .  S
C1380      F1384   1.368       .  S
C1380      F1385   1.384       .  S
C1387      C1388   1.405       .  A
C1387      C1392   1.406       .  A
C1387      H1394   1.081       .  S
C1388      C1389   1.432       .  A
C1389      C1390   1.414       .  A
C1389      C1396   1.503       .  S
C1390      C1391   1.394       .  A
C1390      H1395   1.083       .  S
C1391      C1392   1.422       .  A
C1392      C1393   1.511       .  S
C1393      F1397   1.385       .  S
C1393      F1398   1.378       .  S
C1393      F1399   1.380       .  S
C1396      F1402   1.385       .  S
C1403      C1404   1.399       .  A
C1403      C1408   1.408       .  A
C1403      H1410   1.084       .  S
C1404      C1405   1.425       .  A
C1405      C1406   1.400       .  A
C1405      C1412   1.512       .  S
C1406      C1407   1.394       .  A
C1406      H1411   1.083       .  S
C1407      C1408   1.416       .  A
C1408      C1409   1.501       .  S
C1409      F1413   1.384       .  S
C1409      F1414   1.379       .  S
C1409      F1415   1.383       .  S
C1412      F1416   1.377       .  S
C1412      F1417   1.374       .  S
C1412      F1418   1.385       .  S
C1419      C1420   1.410       .  A
C1419      C1424   1.412       .  A
C1419      H1426   1.081       .  S
C1420      C1421   1.422       .  A
C1421      C1422   1.430       .  A
C1421      C1428   1.516       .  S
C1422      C1423   1.419       .  A
C1422      H1427   1.082       .  S
C1423      C1424   1.425       .  A
C1424      C1425   1.514       .  S
C1425      F1429   1.385       .  S
C1425      F1430   1.383       .  S
C1425      F1431   1.376       .  S
C1428      F1432   1.382       .  S
C1428      F1433   1.383       .  S
C1428      F1434   1.384       .  S
C1435      C1436   1.408       .  A
C1435      C1440   1.416       .  A
C1435      H3674   1.074       .  S
C1436      C3415   1.513       .  S
C1436      C1437   1.420       .  A
C1437      C1438   1.415       .  A
C1437      C1444   1.509       .  S
C1438      C1439   1.405       .  A
C1438      H1443   1.083       .  S
C1439      C1440   1.414       .  A
C1440      C1441   1.513       .  S
C1441      F1445   1.384       .  S
C1441      F1446   1.382       .  S
C1441      F1447   1.378       .  S
H1442      C3667   1.074       .  S
C1444      F1448   1.381       .  S
C1444      F1449   1.380       .  S
C1444      F1450   1.384       .  S
C1451      C3684   1.405   1_455  A
C1451      C2014   1.407       .  A
C1451      H1458   1.083       .  S
C1452      C3683   1.405       .  A
C1452      C2011   1.421       .  A
C1453      C2010   1.421   1_554  A
C1453      C3686   1.414       .  A
C1453      C1460   1.509       .  S
C1454      C3685   1.414       .  A
C1454      C1455   1.403   1_655  A
C1454      H3691   1.079       .  S
C1455      C1456   1.423       .  A
C1456      C2009   1.407   1_554  A
C1456      C2015   1.520       .  S
C1457      C2014   1.520       .  S
C1457      F1461   1.385       .  S
C1457      F2020   1.382       .  S
C1457      F2021   1.382       .  S
H1459      C3686   1.079       .  S
C1460      F1464   1.379       .  S
C1460      F2023   1.378   1_554  S
C1460      F1466   1.384       .  S
F1462      C2015   1.382       .  S
F1463      C2015   1.382       .  S
F1465      C2018   1.378       .  S
C1467      C3700   1.405   1_455  A
C1467      C1472   1.423       .  A
C1467      H1474   1.083       .  S
C1468      C3699   1.405       .  A
C1468      C1469   1.433       .  A
C1469      C1470   1.410       .  A
C1469      C1476   1.518       .  S
C1470      C3703   1.396       .  A
C1470      H1475   1.083       .  S
C1471      C3702   1.396   1_455  A
C1471      C1472   1.431       .  A
C1472      C1473   1.524       .  S
C1473      F1477   1.385       .  S
C1473      F1478   1.383       .  S
C1473      F1479   1.377       .  S
C1476      F1480   1.383       .  S
C1476      F1481   1.374       .  S
C1476      F1482   1.383       .  S
C1483      C2042   1.398   1_554  A
C1483      C1488   1.410       .  A
C1483      H1490   1.082       .  S
C1484      C2041   1.398       .  A
C1485      C1486   1.397       .  A
C1485      C1492   1.512       .  S
C1486      C2045   1.402       .  A
C1486      H1491   1.081       .  S
C1487      C2044   1.402       .  A
C1488      C1489   1.515       .  S
C1489      F1493   1.384       .  S
C1489      F1494   1.375       .  S
C1489      F1495   1.382       .  S
C1492      F1496   1.380       .  S
C1492      F1497   1.381       .  S
C1492      F1498   1.385       .  S
C1499      C1504   1.391       .  A
C1499      H1506   1.085       .  S
C1500      C1501   1.410       .  A
C1501      C1508   1.512       .  S
C1502      C1503   1.402       .  A
C1503      C1504   1.417       .  A
C1504      C1505   1.513       .  S
C1505      F1509   1.385       .  S
C1505      F1510   1.381       .  S
C1505      F1511   1.383       .  S
C1508      F1512   1.383       .  S
C1508      F1513   1.382       .  S
C1508      F1514   1.384       .  S
C1515      C1516   1.394       .  A
C1515      C1520   1.401       .  A
C1515      H1522   1.082       .  S
C1516      C1517   1.429       .  A
C1517      C1518   1.399       .  A
C1517      C1524   1.528       .  S
C1518      C1519   1.403       .  A
C1518      H1523   1.081       .  S
C1519      C1520   1.414       .  A
C1520      C1521   1.494       .  S
C1521      F1525   1.381       .  S
C1521      F1526   1.382       .  S
C1521      F1527   1.384       .  S
C1524      F1528   1.384   1_455  S
C1524      F1529   1.384       .  S
C1524      F1530   1.385       .  S
C1531      C1532   1.416       .  A
C1531      C1536   1.406       .  A
C1531      H1538   1.082       .  S
C1532      C1533   1.433       .  A
C1533      C1534   1.396       .  A
C1533      C1540   1.538       .  S
C1534      C1535   1.404       .  A
C1534      H1539   1.085       .  S
C1535      C1536   1.411       .  A
C1536      C1537   1.520       .  S
C1537      F1541   1.385       .  S
C1537      F1542   1.383       .  S
C1537      F1543   1.384       .  S
C1540      F1544   1.385       .  S
C1540      F1545   1.374       .  S
C1540      F1546   1.384       .  S
C1547      C1548   1.402       .  A
C1547      C4342   1.388       .  A
C1547      H1554   1.083       .  S
C1548      C3781   1.420       .  A
C1549      C3780   1.420   1_455  A
C1549      C1550   1.421       .  A
C1549      C1556   1.514       .  S
C1550      C2109   1.409       .  A
C1550      H1555   1.083       .  S
C1551      C2108   1.409       .  A
C1551      C1552   1.408       .  A
C1552      C4337   1.388   1_454  A
C1552      C1553   1.506   1_455  S
C1553      F1557   1.385       .  S
C1553      F1558   1.381   1_655  S
C1553      F1559   1.380       .  S
C1556      F1560   1.383       .  S
C1556      F3793   1.383   1_455  S
C1556      F1562   1.384       .  S
F1561      C3788   1.383       .  S
C1563      C3796   1.405       .  A
C1563      C1568   1.414       .  A
C1563      H1570   1.084       .  S
C1564      C3795   1.405   1_455  A
C1564      C1565   1.425       .  A
C1565      C1566   1.402       .  A
C1565      C1572   1.505       .  S
C1566      C3799   1.395   1_455  A
C1566      H1571   1.084       .  S
C1567      C3798   1.395       .  A
C1567      C1568   1.429       .  A
C1568      C1569   1.520       .  S
C1569      F1573   1.383       .  S
C1569      F1574   1.378       .  S
C1569      F1575   1.383       .  S
C1572      F1576   1.377       .  S
C1572      F1577   1.382       .  S
C1572      F1578   1.379       .  S
C1579      C1580   1.404       .  A
C1579      C1584   1.413       .  A
C1579      H1586   1.069       .  S
C1580      C1581   1.423       .  A
C1581      C1582   1.416       .  A
C1581      C1588   1.520       .  S
C1582      C1583   1.411       .  A
C1582      H1587   1.078       .  S
C1583      C1584   1.422       .  A
C1585      F1589   1.384       .  S
C1585      F1590   1.382       .  S
C1585      F1591   1.384       .  S
C1588      F1592   1.379       .  S
C1588      F1593   1.382       .  S
C1588      F1594   1.385       .  S
C1595      C1596   1.399       .  A
C1595      C1600   1.410       .  A
C1595      H1602   1.084       .  S
C1596      C1597   1.414       .  A
C1597      C1598   1.404       .  A
C1597      C1604   1.501       .  S
C1598      C1599   1.402       .  A
C1598      H1603   1.078       .  S
C1599      C1600   1.425       .  A
C1600      C1601   1.507       .  S
C1601      F3837   1.385       .  S
C1601      F1606   1.382       .  S
C1601      F1607   1.368       .  S
C1604      F1608   1.376       .  S
C1604      F1609   1.372       .  S
C1604      F1610   1.384       .  S
F1605      C3833   1.385   1_455  S
C1611      C1612   1.401       .  A
C1611      C1616   1.414       .  A
C1611      H1618   1.085       .  S
C1612      C3360   1.496       .  S
C1612      C1613   1.411       .  A
C1613      C1614   1.408       .  A
C1613      C1620   1.502       .  S
C1614      C1615   1.410       .  A
C1615      C1616   1.435       .  A
C1616      C1617   1.522       .  S
C1617      F1621   1.378       .  S
C1617      F1622   1.379       .  S
C1617      F1623   1.375       .  S
C1620      F3856   1.384   1_455  S
C1620      F3857   1.381   1_455  S
C1620      F1626   1.384   1_565  S
F1624      C3852   1.384       .  S
F1625      C3852   1.381       .  S
C1627      C1628   1.397       .  A
C1627      C1632   1.412       .  A
C1627      H1634   1.083       .  S
C1628      C1629   1.424       .  A
C1629      C1630   1.416       .  A
C1629      C1636   1.516       .  S
C1630      C1631   1.403       .  A
C1630      H1635   1.083       .  S
C1631      C1632   1.418       .  A
C1632      C1633   1.497       .  S
C1633      F1637   1.384       .  S
C1633      F1638   1.380       .  S
C1633      F1639   1.381       .  S
C1636      F1640   1.380       .  S
C1636      F1641   1.377       .  S
C1636      F1642   1.385       .  S
C1643      C1644   1.395       .  A
C1643      C2206   1.407   1_554  A
C1643      H1650   1.082       .  S
C1644      C1645   1.421       .  A
C1645      C2204   1.412   1_554  A
C1645      C1652   1.513       .  S
C1646      C2203   1.412       .  A
C1646      C1647   1.401       .  A
C1646      H1651   1.083       .  S
C1647      C1648   1.428       .  A
C1648      C2201   1.407       .  A
C1648      C1649   1.523       .  S
C1649      F1653   1.385       .  S
C1649      F1654   1.375       .  S
C1649      F1655   1.382       .  S
C1652      F1656   1.376       .  S
C1652      F1657   1.381       .  S
C1652      F1658   1.385       .  S
C1659      C1660   1.388       .  A
C1659      C1664   1.397       .  A
C1659      H1666   1.082       .  S
C1660      C1661   1.409       .  A
C1661      C1662   1.408       .  A
C1661      C1668   1.515       .  S
C1662      C1663   1.409       .  A
C1662      H1667   1.083       .  S
C1663      C1664   1.431       .  A
C1664      C1665   1.520       .  S
C1665      F1669   1.380       .  S
C1665      F1670   1.378       .  S
C1665      F1671   1.375       .  S
C1668      F1672   1.381       .  S
C1668      F1673   1.380       .  S
C1668      F1674   1.384       .  S
O1675      C1683   1.254       .  A
O1675     Co1695   2.015       .  S
O1676      C1684   1.257       .  A
O1676     Co1696   1.936       .  S
O1677      C1685   1.279       .  A
O1677     Co1697   2.037       .  S
O1678      C1686   1.246       .  A
O1678     Co1698   1.972       .  S
O1679      C1685   1.255       .  A
O1679     Co1696   1.957       .  S
O1680      C1686   1.259       .  A
O1680     Co1695   2.024       .  S
O1681      C1684   1.271       .  A
O1681     Co1698   2.038       .  S
O1682      C1683   1.249       .  A
O1682     Co1697   1.985       .  S
C1683      C2138   1.513       .  S
C1684      C2106   1.488       .  S
C1685      C2205   1.486       .  S
C1686      C4402   1.496       .  S
O1687      C1700   1.289       .  A
O1687     Co1695   2.052       .  S
O1688      C1701   1.268       .  A
O1688     Co1696   2.036       .  S
O1689      C1702   1.280       .  A
O1689     Co1697   1.924       .  S
O1690      C1703   1.261       .  A
O1690     Co1698   1.989       .  S
O1691      C1703   1.270       .  A
O1691     Co1696   2.024       .  S
O1692      C1702   1.286       .  A
O1692     Co1695   2.040       .  S
O1693      C1700   1.278       .  A
O1693     Co1698   1.917       .  S
O1694      C1701   1.259       .  A
O1694     Co1697   1.997       .  S
Co1695     O1699   2.232       .  S
Co1696     O1699   2.079       .  S
Co1697     O1699   1.997       .  S
Co1698     O1699   1.988       .  S
C1700      C2125   1.490       .  S
C1701      C2189   1.504       .  S
C1702      C2221   1.488       .  S
C1703      C2157   1.508       .  S
O1704      C1712   1.250       .  A
O1704     Co1724   1.960       .  S
O1705      C1713   1.268       .  A
O1705     Co1725   1.985       .  S
O1706      C1714   1.302       .  A
O1706     Co3958   2.113       .  S
O1707      C1715   1.262       .  A
O1707     Co1727   2.004       .  S
O1708      C3946   1.246       .  A
O1708     Co1725   1.847       .  S
O1709      C1715   1.251       .  A
O1709     Co1724   1.943       .  S
O1710      C1713   1.280       .  A
O1710     Co1727   2.037       .  S
O1711      C1712   1.276       .  A
O1711     Co1726   2.074       .  S
C1712      C2026   1.511       .  S
C1714      O3940   1.246       .  A
C1714      C2074   1.477   1_655  S
C1715      C2061   1.461       .  S
O1716      C1729   1.277       .  A
O1716     Co1724   2.016       .  S
O1717      C1730   1.304       .  A
O1717     Co1725   2.119       .  S
O1718      C1731   1.264       .  A
O1718     Co1726   1.976       .  S
O1719      C1732   1.253       .  A
O1719     Co1727   1.987       .  S
O1720      C1732   1.251       .  A
O1720     Co1725   1.990       .  S
O1721      C1731   1.275       .  A
O1721     Co1724   2.036       .  S
O1722      C1729   1.254       .  A
O1722     Co1727   1.935       .  S
O1723      C1730   1.272       .  A
O1723     Co1726   1.891       .  S
Co1724     O1728   2.015       .  S
Co1725     O1728   1.977       .  S
Co1726     O3938   2.113       .  S
Co1726     O1728   2.041       .  S
Co1727     O1728   2.069       .  S
C1729      C2090   1.485       .  S
C1730      C2010   1.500       .  S
C1731      C2154   1.491       .  S
C1732      C2042   1.482       .  S
O1733      C1741   1.289       .  A
O1733     Co1753   2.095       .  S
O1734      C1742   1.265       .  A
O1734     Co1754   2.016       .  S
O1735      C1743   1.267       .  A
O1735     Co1755   1.971       .  S
O1736      C1744   1.249       .  A
O1736     Co1756   1.946       .  S
O1737      C1743   1.288       .  A
O1737     Co1754   2.054       .  S
O1738      C1744   1.268       .  A
O1738     Co1753   2.036       .  S
O1739      C1742   1.258       .  A
O1739     Co1756   1.950       .  S
O1740      C1741   1.271       .  A
O1740     Co1755   1.946       .  S
C1741      C4226   1.513   1_455  S
C1742      C1914   1.477   1_565  S
C1744      C2109   1.478       .  S
O1745      C1758   1.264       .  A
O1745     Co1753   1.963       .  S
O1746      C1759   1.253       .  A
O1746     Co1754   1.959       .  S
O1747      C1760   1.286       .  A
O1747     Co1755   2.076       .  S
O1748      C1761   1.274       .  A
O1748     Co1756   2.039       .  S
O1749      C1761   1.270       .  A
O1749     Co1754   2.000       .  S
O1750      C1760   1.270       .  A
O1750     Co1753   1.923       .  S
O1751      C1758   1.281       .  A
O1751     Co1756   2.041       .  S
O1752      C1759   1.272       .  A
O1752     Co1755   2.024       .  S
Co1753     O1757   2.049       .  S
Co1754     O1757   2.055       .  S
Co1755     O1757   2.037       .  S
Co1756     O1757   2.027       .  S
C1758      C1962   1.482       .  S
C1759      C1933   1.501       .  S
C1760      C2122   1.506       .  S
C1761      C1981   1.530       .  S
O1762      C1770   1.269       .  A
O1762     Co1782   2.062       .  S
O1763      C1771   1.268       .  A
O1763     Co1783   2.026       .  S
O1764      C1772   1.247       .  A
O1764     Co1784   1.931       .  S
O1765      C1773   1.260       .  A
O1765     Co1785   1.862       .  S
O1766      C1772   1.276       .  A
O1766     Co1783   2.034       .  S
O1767      C1773   1.300       .  A
O1767     Co1782   2.110       .  S
O1768      C1771   1.268       .  A
O1768     Co1785   1.974       .  S
O1769      C1770   1.239       .  A
O1769     Co1784   1.927       .  S
C1770      C1882   1.488       .  S
C1772      C1930   1.483       .  S
C1773      C2077   1.490       .  S
O1774      C1787   1.272       .  A
O1774     Co1782   1.914       .  S
O1775      C1788   1.252       .  A
O1775     Co1783   1.923       .  S
O1776      C1789   1.278       .  A
O1776     Co1784   2.045       .  S
O1777      C1790   1.260       .  A
O1777     Co1785   2.005       .  S
O1778      C1790   1.252       .  A
O1778     Co1783   1.979       .  S
O1779      C1789   1.269       .  A
O1779     Co1782   1.981       .  S
O1780      C1787   1.293       .  A
O1780     Co1785   2.082       .  S
O1781      C1788   1.268       .  A
O1781     Co1784   2.015       .  S
Co1782     O1786   2.048       .  S
Co1783     O1786   2.047       .  S
Co1784     O1786   2.041       .  S
Co1785     O1786   1.996       .  S
C1787      C1898   1.480       .  S
C1788      C2093   1.480       .  S
C1789      C2186   1.493       .  S
C1790      C1917   1.472       .  S
O1791      C1799   1.268       .  A
O1791     Co1811   2.015       .  S
O1792      C1800   1.296       .  A
O1792     Co1812   2.055       .  S
O1793      C1801   1.281       .  A
O1793     Co1813   1.945       .  S
O1794      C1802   1.250       .  A
O1794     Co1814   1.980       .  S
O1795      C1801   1.290       .  A
O1795     Co1812   2.044       .  S
O1796      C1802   1.268       .  A
O1796     Co1811   2.066       .  S
O1797      C1800   1.279       .  A
O1797     Co1814   1.926       .  S
O1798      C1799   1.262       .  A
O1798     Co1813   1.992       .  S
C1799      C4085   1.491   1_455  S
C1800      C1901   1.483       .  S
C1801      C2013   1.499       .  S
C1802      C1949   1.495       .  S
O1803      C1816   1.245       .  A
O1803     Co1811   1.949       .  S
O1804      C1817   1.256       .  A
O1804     Co1812   2.004       .  S
O1805      C1818   1.279       .  A
O1805     Co1813   2.051       .  S
O1806      C1819   1.238       .  A
O1806     Co1814   1.948       .  S
O1807      C1819   1.253       .  A
O1807     Co1812   1.986       .  S
O1808      C1818   1.252       .  A
O1808     Co1811   1.969       .  S
O1809      C1816   1.274       .  A
O1809     Co1814   2.053       .  S
O1810      C1817   1.248       .  A
O1810     Co1813   1.957       .  S
Co1811     O1815   2.055       .  S
Co1812     O1815   2.230       .  S
Co1813     O1815   1.966       .  S
Co1814     O1815   1.949       .  S
C1816      C1885   1.487       .  S
C1817      C1965   1.481       .  S
C1818      C2029   1.509       .  S
C1819      C1866   1.478       .  S
O1820      C1828   1.256       .  A
O1820     Co1840   1.964       .  S
O1821      C1829   1.267       .  A
O1821     Co1841   1.964       .  S
O1822      C1830   1.307       .  A
O1822     Co1842   2.095       .  S
O1823      C1831   1.291       .  A
O1823     Co1843   2.077       .  S
O1824      C1830   1.270       .  A
O1824     Co1841   1.929       .  S
O1825      C1831   1.254       .  A
O1825     Co1840   1.932       .  S
O1826      C1829   1.268       .  A
O1826     Co1843   2.008       .  S
O1827      C1828   1.287       .  A
O1827     Co1842   2.052       .  S
C1828      C1997   1.489       .  S
C1829      C2045   1.492       .  S
C1830      C2202   1.486       .  S
O1832      C1845   1.254       .  A
O1832     Co1840   1.983       .  S
O1833      C1846   1.285       .  A
O1833     Co1841   2.076       .  S
O1834      C1847   1.261       .  A
O1834     Co1842   1.997       .  S
O1835      C1848   1.257       .  A
O1835     Co1843   1.970       .  S
O1836      C1848   1.274       .  A
O1836     Co1841   2.058       .  S
O1837      C1847   1.253       .  A
O1837     Co1840   1.969       .  S
O1838      C1845   1.244       .  A
O1838     Co1843   1.961       .  S
O1839      C1846   1.262       .  A
O1839     Co1842   1.897       .  S
Co1840     O1844   2.049       .  S
Co1841     O1844   2.029       .  S
Co1842     O1844   2.015       .  S
Co1843     O1844   2.026       .  S
C1845      C2058   1.451       .  S
C1846      C1869   1.463       .  S
C1847      C2218   1.459       .  S
C1848      C1978   1.525       .  S
C1849      C1850   1.397       .  A
C1849      C1854   1.405       .  A
C1849      H1856   1.076       .  S
C1850      C1851   1.436       .  A
C1851      C1852   1.411       .  A
C1851      C1858   1.524       .  S
C1852      C1853   1.397       .  A
C1852      H4089   1.083       .  S
C1853      C4031   1.491       .  S
C1853      C1854   1.419       .  A
C1854      C1855   1.505       .  S
C1855      F1859   1.385       .  S
C1855      F1860   1.373       .  S
C1855      F1861   1.378       .  S
H1857      C4084   1.083   1_455  S
C1858      F4096   1.385       .  S
F1864      C4090   1.385       .  S
C1865      C1866   1.403       .  A
C1865      C1870   1.393       .  A
C1865      H1872   1.075       .  S
C1866      C1867   1.422       .  A
C1867      C1868   1.403       .  A
C1867      C1874   1.521       .  S
C1868      C1869   1.402       .  A
C1868      H1873   1.082       .  S
C1869      C1870   1.410       .  A
C1870      C1871   1.519       .  S
C1871      F1875   1.384       .  S
C1871      F1876   1.375       .  S
C1871      F1877   1.378       .  S
C1874      F1878   1.383       .  S
C1874      F1879   1.383       .  S
C1874      F1880   1.385       .  S
C1881      C1882   1.388       .  A
C1881      C1886   1.396       .  A
C1881      H1888   1.072       .  S
C1882      C1883   1.433       .  A
C1883      C1884   1.420       .  A
C1883      C1890   1.518       .  S
C1884      C1885   1.402       .  A
C1884      H1889   1.083       .  S
C1885      C1886   1.422       .  A
C1886      C1887   1.524       .  S
C1887      F1891   1.379       .  S
C1887      F1892   1.365       .  S
C1887      F1893   1.375       .  S
C1890      F1894   1.381       .  S
C1890      F1895   1.379       .  S
C1890      F1896   1.385       .  S
C1897      C1898   1.400       .  A
C1897      H1904   1.079       .  S
C1898      C1899   1.413       .  A
C1899      C1906   1.514       .  S
C1900      C1901   1.408       .  A
C1900      H1905   1.083       .  S
C1901      C1902   1.419       .  A
C1902      C1903   1.519       .  S
C1903      F1907   1.384       .  S
C1903      F1908   1.382       .  S
C1903      F1909   1.378       .  S
C1906      F1910   1.381       .  S
C1906      F1911   1.383       .  S
C1913      C1918   1.392   1_564  A
C1913      H1920   1.084       .  S
C1915      C1916   1.413       .  A
C1915      C1922   1.510       .  S
C1916      H1921   1.083       .  S
C1918      C1919   1.508   1_545  S
C1919      F1923   1.385       .  S
C1919      F1924   1.383       .  S
C1919      F1925   1.380       .  S
C1922      F1926   1.383       .  S
C1922      F1927   1.375       .  S
C1922      F1928   1.384       .  S
C1929      C1930   1.398       .  A
C1929      C1934   1.409       .  A
C1929      H1936   1.083       .  S
C1930      C1931   1.430       .  A
C1931      C1938   1.521       .  S
C1932      C1933   1.399       .  A
C1932      H1937   1.085       .  S
C1934      C1935   1.513       .  S
C1935      F1939   1.385       .  S
C1935      F1940   1.384       .  S
C1938      F1942   1.368       .  S
C1938      F1943   1.384       .  S
C1945      C1946   1.405       .  A
C1945      C1950   1.406       .  A
C1945      H1952   1.081       .  S
C1946      C1947   1.432       .  A
C1947      C1948   1.414       .  A
C1947      C1954   1.503       .  S
C1948      C1949   1.394       .  A
C1948      H1953   1.083       .  S
C1949      C1950   1.422       .  A
C1950      C1951   1.511       .  S
C1951      F1955   1.385       .  S
C1951      F1956   1.378       .  S
C1951      F1957   1.380       .  S
C1954      F1960   1.385       .  S
C1961      C1962   1.399       .  A
C1961      C1966   1.408       .  A
C1961      H1968   1.084       .  S
C1962      C1963   1.425       .  A
C1963      C1964   1.400       .  A
C1963      C1970   1.512       .  S
C1964      C1965   1.394       .  A
C1964      H1969   1.083       .  S
C1965      C1966   1.416       .  A
C1966      C1967   1.501       .  S
C1967      F1971   1.384       .  S
C1967      F1972   1.379       .  S
C1967      F1973   1.383       .  S
C1970      F1974   1.377       .  S
C1970      F1975   1.374       .  S
C1970      F1976   1.385       .  S
C1977      C1978   1.410       .  A
C1977      C1982   1.412       .  A
C1977      H1984   1.081       .  S
C1978      C1979   1.422       .  A
C1979      C1980   1.430       .  A
C1979      C1986   1.516       .  S
C1980      C1981   1.419       .  A
C1980      H1985   1.082       .  S
C1981      C1982   1.425       .  A
C1982      C1983   1.514       .  S
C1983      F1987   1.385       .  S
C1983      F1988   1.383       .  S
C1983      F1989   1.376       .  S
C1986      F1990   1.382       .  S
C1986      F1991   1.383       .  S
C1986      F1992   1.384       .  S
C1993      C1994   1.408       .  A
C1993      C1998   1.416       .  A
C1993      H4232   1.074       .  S
C1994      C3973   1.513       .  S
C1994      C1995   1.420       .  A
C1995      C1996   1.415       .  A
C1995      C2002   1.509       .  S
C1996      C1997   1.405       .  A
C1996      H2001   1.083       .  S
C1997      C1998   1.414       .  A
C1998      C1999   1.513       .  S
C1999      F2003   1.384       .  S
C1999      F2004   1.382       .  S
C1999      F2005   1.378       .  S
H2000      C4225   1.074       .  S
C2002      F2006   1.381       .  S
C2002      F2007   1.380       .  S
C2002      F2008   1.384       .  S
C2009      C4242   1.405   1_455  A
C2009      H2016   1.083       .  S
C2010      C4241   1.405       .  A
C2011      C4244   1.414       .  A
C2011      C2018   1.509       .  S
C2012      C4243   1.414       .  A
C2012      C2013   1.403   1_655  A
C2012      H4249   1.079       .  S
C2013      C2014   1.423       .  A
C2015      F2019   1.385   1_554  S
H2017      C4244   1.079       .  S
C2018      F2022   1.379       .  S
C2018      F2024   1.384       .  S
C2025      C4258   1.405   1_455  A
C2025      C2030   1.423       .  A
C2025      H2032   1.083       .  S
C2026      C4257   1.405       .  A
C2026      C2027   1.433       .  A
C2027      C2028   1.410       .  A
C2027      C2034   1.518       .  S
C2028      C4261   1.396       .  A
C2028      H2033   1.083       .  S
C2029      C4260   1.396   1_455  A
C2029      C2030   1.431       .  A
C2030      C2031   1.524       .  S
C2031      F2035   1.385       .  S
C2031      F2036   1.383       .  S
C2031      F2037   1.377       .  S
C2034      F2038   1.383       .  S
C2034      F2039   1.374       .  S
C2034      F2040   1.383       .  S
C2041      C2046   1.410       .  A
C2041      H2048   1.082       .  S
C2043      C2044   1.397   1_556  A
C2043      C2050   1.512       .  S
C2044      H2049   1.081       .  S
C2046      C2047   1.515       .  S
C2047      F2051   1.384       .  S
C2047      F2052   1.375       .  S
C2047      F2053   1.382       .  S
C2050      F2054   1.380       .  S
C2050      F2055   1.381       .  S
C2050      F2056   1.385       .  S
C2057      C2062   1.391       .  A
C2057      H2064   1.085       .  S
C2058      C2059   1.410       .  A
C2059      C2066   1.512       .  S
C2060      C2061   1.402       .  A
C2061      C2062   1.417       .  A
C2062      C2063   1.513       .  S
C2063      F2067   1.385       .  S
C2063      F2068   1.381       .  S
C2063      F2069   1.383       .  S
C2066      F2070   1.383       .  S
C2066      F2071   1.382       .  S
C2066      F2072   1.384       .  S
C2073      C2074   1.394       .  A
C2073      C2078   1.401       .  A
C2073      H2080   1.082       .  S
C2074      C2075   1.429       .  A
C2075      C2076   1.399       .  A
C2075      C2082   1.528       .  S
C2076      C2077   1.403       .  A
C2076      H2081   1.081       .  S
C2077      C2078   1.414       .  A
C2078      C2079   1.494       .  S
C2079      F2083   1.381       .  S
C2079      F2084   1.382       .  S
C2079      F2085   1.384       .  S
C2082      F2086   1.384   1_455  S
C2082      F2087   1.384       .  S
C2082      F2088   1.385       .  S
C2089      C2090   1.416       .  A
C2089      C2094   1.406       .  A
C2089      H2096   1.082       .  S
C2090      C2091   1.433       .  A
C2091      C2092   1.396       .  A
C2091      C2098   1.538       .  S
C2092      C2093   1.404       .  A
C2092      H2097   1.085       .  S
C2093      C2094   1.411       .  A
C2094      C2095   1.520       .  S
C2095      F2099   1.385       .  S
C2095      F2100   1.383       .  S
C2095      F2101   1.384       .  S
C2098      F2102   1.385       .  S
C2098      F2103   1.374       .  S
C2098      F2104   1.384       .  S
C2105      C2106   1.402       .  A
C2105      C3784   1.388   1_556  A
C2105      H2112   1.083       .  S
C2106      C4339   1.420       .  A
C2107      C4338   1.420   1_455  A
C2107      C2108   1.421   1_556  A
C2107      C2114   1.514       .  S
C2108      H2113   1.083       .  S
C2109      C2110   1.408       .  A
C2110      C3779   1.388   1_455  A
C2110      C2111   1.506   1_455  S
C2111      F2115   1.385       .  S
C2111      F2116   1.381   1_655  S
C2111      F2117   1.380       .  S
C2114      F2118   1.383       .  S
C2114      F4351   1.383   1_455  S
C2114      F2120   1.384       .  S
F2119      C4346   1.383       .  S
C2121      C4354   1.405       .  A
C2121      C2126   1.414       .  A
C2121      H2128   1.084       .  S
C2122      C4353   1.405   1_455  A
C2122      C2123   1.425       .  A
C2123      C2124   1.402       .  A
C2123      C2130   1.505       .  S
C2124      C4357   1.395   1_455  A
C2124      H2129   1.084       .  S
C2125      C4356   1.395       .  A
C2125      C2126   1.429       .  A
C2126      C2127   1.520       .  S
C2127      F2131   1.383       .  S
C2127      F2132   1.378       .  S
C2127      F2133   1.383       .  S
C2130      F2134   1.377       .  S
C2130      F2135   1.382       .  S
C2130      F2136   1.379       .  S
C2137      C2138   1.404       .  A
C2137      C2142   1.413       .  A
C2137      H2144   1.069       .  S
C2138      C2139   1.423       .  A
C2139      C2140   1.416       .  A
C2139      C2146   1.520       .  S
C2140      C2141   1.411       .  A
C2140      H2145   1.078       .  S
C2141      C2142   1.422       .  A
C2143      F2147   1.384       .  S
C2143      F2148   1.382       .  S
C2143      F2149   1.384       .  S
C2146      F2150   1.379       .  S
C2146      F2151   1.382       .  S
C2146      F2152   1.385       .  S
C2153      C2154   1.399       .  A
C2153      C2158   1.410       .  A
C2153      H2160   1.084       .  S
C2154      C2155   1.414       .  A
C2155      C2156   1.404       .  A
C2155      C2162   1.501       .  S
C2156      C2157   1.402       .  A
C2156      H2161   1.078       .  S
C2157      C2158   1.425       .  A
C2158      C2159   1.507       .  S
C2159      F4395   1.385       .  S
C2159      F2164   1.382       .  S
C2159      F2165   1.368       .  S
C2162      F2166   1.376       .  S
C2162      F2167   1.372       .  S
C2162      F2168   1.384       .  S
F2163      C4391   1.385   1_455  S
C2169      C2170   1.401       .  A
C2169      C2174   1.414       .  A
C2169      H2176   1.085       .  S
C2170      C3918   1.496       .  S
C2170      C2171   1.411       .  A
C2171      C2172   1.408       .  A
C2171      C2178   1.502       .  S
C2172      C2173   1.410       .  A
C2173      C2174   1.435       .  A
C2174      C2175   1.522       .  S
C2175      F2179   1.378       .  S
C2175      F2180   1.379       .  S
C2175      F2181   1.375       .  S
C2178      F4414   1.384   1_455  S
C2178      F4415   1.381   1_455  S
C2178      F2184   1.384   1_565  S
F2182      C4410   1.384       .  S
F2183      C4410   1.381       .  S
C2185      C2186   1.397       .  A
C2185      C2190   1.412       .  A
C2185      H2192   1.083       .  S
C2186      C2187   1.424       .  A
C2187      C2188   1.416       .  A
C2187      C2194   1.516       .  S
C2188      C2189   1.403       .  A
C2188      H2193   1.083       .  S
C2189      C2190   1.418       .  A
C2190      C2191   1.497       .  S
C2191      F2195   1.384       .  S
C2191      F2196   1.380       .  S
C2191      F2197   1.381       .  S
C2194      F2198   1.380       .  S
C2194      F2199   1.377       .  S
C2194      F2200   1.385       .  S
C2201      C2202   1.395       .  A
C2201      H2208   1.082       .  S
C2202      C2203   1.421       .  A
C2203      C2210   1.513       .  S
C2204      C2205   1.401       .  A
C2204      H2209   1.083       .  S
C2205      C2206   1.428       .  A
C2206      C2207   1.523       .  S
C2207      F2211   1.385       .  S
C2207      F2212   1.375       .  S
C2207      F2213   1.382       .  S
C2210      F2214   1.376       .  S
C2210      F2215   1.381       .  S
C2210      F2216   1.385       .  S
C2217      C2218   1.388       .  A
C2217      C2222   1.397       .  A
C2217      H2224   1.082       .  S
C2218      C2219   1.409       .  A
C2219      C2220   1.408       .  A
C2219      C2226   1.515       .  S
C2220      C2221   1.409       .  A
C2220      H2225   1.083       .  S
C2221      C2222   1.431       .  A
C2222      C2223   1.520       .  S
C2223      F2227   1.380       .  S
C2223      F2228   1.378       .  S
C2223      F2229   1.375       .  S
C2226      F2230   1.381       .  S
C2226      F2231   1.380       .  S
C2226      F2232   1.384       .  S
O2233      C2241   1.254       .  A
O2233     Co2253   2.015       .  S
O2234      C2242   1.257       .  A
O2234     Co2254   1.936       .  S
O2235      C2243   1.279       .  A
O2235     Co2255   2.037       .  S
O2236      C2244   1.246   1_655  A
O2236     Co2256   1.972       .  S
O2237      C2243   1.255       .  A
O2237     Co2254   1.957       .  S
O2238      C2244   1.259   1_655  A
O2238     Co2253   2.024       .  S
O2239      C2242   1.271       .  A
O2239     Co2256   2.038       .  S
O2240      C2241   1.249       .  A
O2240     Co2255   1.985       .  S
C2241      C2696   1.513       .  S
C2242      C2664   1.488       .  S
C2243      C2763   1.486       .  S
O2245      C2258   1.289       .  A
O2245     Co2253   2.052       .  S
O2246      C2259   1.268       .  A
O2246     Co2254   2.036       .  S
O2247      C2260   1.280       .  A
O2247     Co2255   1.924       .  S
O2248      C2261   1.261       .  A
O2248     Co2256   1.989       .  S
O2249      C2261   1.270       .  A
O2249     Co2254   2.024       .  S
O2250      C2260   1.286       .  A
O2250     Co2253   2.040       .  S
O2251      C2258   1.278       .  A
O2251     Co2256   1.917       .  S
O2252      C2259   1.259       .  A
O2252     Co2255   1.997       .  S
Co2253     O2257   2.232       .  S
Co2254     O2257   2.079       .  S
Co2255     O2257   1.997       .  S
Co2256     O2257   1.988       .  S
C2258      C2683   1.490       .  S
C2259      C2747   1.504       .  S
C2260      C2779   1.488       .  S
C2261      C2715   1.508       .  S
O2262      C2270   1.250       .  A
O2262     Co2282   1.960       .  S
O2263      C2271   1.268       .  A
O2263     Co2283   1.985       .  S
O2264      C2272   1.302       .  A
O2265      C2273   1.262       .  A
O2265     Co2285   2.004       .  S
O2266     Co2283   1.847       .  S
O2267      C2273   1.251       .  A
O2267     Co2282   1.943       .  S
O2268      C2271   1.280       .  A
O2268     Co2285   2.037       .  S
O2269      C2270   1.276       .  A
O2269     Co2284   2.074       .  S
C2270      C2584   1.511       .  S
C2271      C3815   1.513   1_545  S
C2272      C2632   1.477       .  S
C2273      C2619   1.461       .  S
O2274      C2287   1.277       .  A
O2274     Co2282   2.016       .  S
O2275      C2288   1.304       .  A
O2275     Co2283   2.119       .  S
O2276      C2289   1.264       .  A
O2276     Co2284   1.976       .  S
O2277      C2290   1.253       .  A
O2277     Co2285   1.987       .  S
O2278      C2290   1.251       .  A
O2278     Co2283   1.990       .  S
O2279      C2289   1.275       .  A
O2279     Co2282   2.036       .  S
O2280      C2287   1.254       .  A
O2280     Co2285   1.935       .  S
O2281      C2288   1.272       .  A
O2281     Co2284   1.891       .  S
Co2282     O2286   2.015       .  S
Co2283     O2286   1.977       .  S
Co2284     O2286   2.041       .  S
Co2285     O2286   2.069       .  S
C2287      C2648   1.485       .  S
C2288      C2568   1.500       .  S
C2289      C2712   1.491       .  S
C2290      C2600   1.482       .  S
O2291      C2299   1.289       .  A
O2291     Co2311   2.095       .  S
O2292      C2300   1.265       .  A
O2292     Co2312   2.016       .  S
O2293      C2301   1.267       .  A
O2293     Co2313   1.971       .  S
O2294      C2302   1.249       .  A
O2294     Co2314   1.946       .  S
O2295      C2301   1.288       .  A
O2295     Co2312   2.054       .  S
O2296      C2302   1.268       .  A
O2296     Co2311   2.036       .  S
O2297      C2300   1.258       .  A
O2297     Co2314   1.950       .  S
O2298      C2299   1.271       .  A
O2298     Co2313   1.946       .  S
C2300      C2472   1.477       .  S
C2301      C3620   1.519       .  S
C2302      C2667   1.478       .  S
O2303      C2316   1.264       .  A
O2303     Co2311   1.963       .  S
O2304      C2317   1.253       .  A
O2304     Co2312   1.959       .  S
O2305      C2318   1.286       .  A
O2305     Co2313   2.076       .  S
O2306      C2319   1.274       .  A
O2306     Co2314   2.039       .  S
O2307      C2319   1.270       .  A
O2307     Co2312   2.000       .  S
O2308      C2318   1.270       .  A
O2308     Co2311   1.923       .  S
O2309      C2316   1.281       .  A
O2309     Co2314   2.041       .  S
O2310      C2317   1.272       .  A
O2310     Co2313   2.024       .  S
Co2311     O2315   2.049       .  S
Co2312     O2315   2.055       .  S
Co2313     O2315   2.037       .  S
Co2314     O2315   2.027       .  S
C2316      C2520   1.482       .  S
C2317      C2491   1.501       .  S
C2318      C2680   1.506       .  S
C2319      C2539   1.530       .  S
O2320      C2328   1.269       .  A
O2320     Co2340   2.062       .  S
O2321      C2329   1.268       .  A
O2321     Co2341   2.026       .  S
O2322      C2330   1.247       .  A
O2322     Co2342   1.931       .  S
O2323      C2331   1.260       .  A
O2323     Co2343   1.862       .  S
O2324      C2330   1.276       .  A
O2324     Co2341   2.034       .  S
O2325      C2331   1.300       .  A
O2325     Co2340   2.110       .  S
O2326      C2329   1.268       .  A
O2326     Co2343   1.974       .  S
O2327      C2328   1.239       .  A
O2327     Co2342   1.927       .  S
C2328      C2440   1.488       .  S
C2329      C3847   1.509   1_545  S
C2330      C2488   1.483       .  S
C2331      C2635   1.490       .  S
O2332      C2345   1.272       .  A
O2332     Co2340   1.914       .  S
O2333      C2346   1.252       .  A
O2333     Co2341   1.923       .  S
O2334      C2347   1.278       .  A
O2334     Co2342   2.045       .  S
O2335      C2348   1.260       .  A
O2335     Co2343   2.005       .  S
O2336      C2348   1.252       .  A
O2336     Co2341   1.979       .  S
O2337      C2347   1.269       .  A
O2337     Co2340   1.981       .  S
O2338      C2345   1.293       .  A
O2338     Co2343   2.082       .  S
O2339      C2346   1.268       .  A
O2339     Co2342   2.015       .  S
Co2340     O2344   2.048       .  S
Co2341     O2344   2.047       .  S
Co2342     O2344   2.041       .  S
Co2343     O2344   1.996       .  S
C2345      C2456   1.480       .  S
C2346      C2651   1.480       .  S
C2347      C2744   1.493       .  S
C2348      C2475   1.472       .  S
O2349      C2357   1.268       .  A
O2349     Co2369   2.015       .  S
O2350      C2358   1.296       .  A
O2350     Co2370   2.055       .  S
O2351      C2359   1.281       .  A
O2351     Co2371   1.945       .  S
O2352      C2360   1.250       .  A
O2352     Co2372   1.980       .  S
O2353      C2359   1.290       .  A
O2353     Co2370   2.044       .  S
O2354      C2360   1.268       .  A
O2354     Co2369   2.066       .  S
O2355      C2358   1.279       .  A
O2355     Co2372   1.926       .  S
O2356      C2357   1.262       .  A
O2356     Co2371   1.992       .  S
C2358      C2459   1.483       .  S
C2359      C2571   1.499       .  S
C2360      C2507   1.495       .  S
O2361      C2374   1.245       .  A
O2361     Co2369   1.949       .  S
O2362      C2375   1.256       .  A
O2362     Co2370   2.004       .  S
O2363      C2376   1.279       .  A
O2363     Co2371   2.051       .  S
O2364      C2377   1.238       .  A
O2364     Co2372   1.948       .  S
O2365      C2377   1.253       .  A
O2365     Co2370   1.986       .  S
O2366      C2376   1.252       .  A
O2366     Co2369   1.969       .  S
O2367      C2374   1.274       .  A
O2367     Co2372   2.053       .  S
O2368      C2375   1.248       .  A
O2368     Co2371   1.957       .  S
Co2369     O2373   2.055       .  S
Co2370     O2373   2.230       .  S
Co2371     O2373   1.966       .  S
Co2372     O2373   1.949       .  S
C2374      C2443   1.487       .  S
C2375      C2523   1.481       .  S
C2376      C2587   1.509       .  S
C2377      C2424   1.478       .  S
O2378      C2386   1.256       .  A
O2378     Co2398   1.964       .  S
O2379      C2387   1.267       .  A
O2379     Co2399   1.964       .  S
O2380      C2388   1.307       .  A
O2380     Co2400   2.095       .  S
O2381      C2389   1.291       .  A
O2381     Co2401   2.077       .  S
O2382      C2388   1.270       .  A
O2382     Co2399   1.929       .  S
O2383      C2389   1.254       .  A
O2383     Co2398   1.932       .  S
O2384      C2387   1.268       .  A
O2384     Co2401   2.008       .  S
O2385      C2386   1.287       .  A
O2385     Co2400   2.052       .  S
C2386      C2555   1.489       .  S
C2387      C2603   1.492       .  S
C2388      C2760   1.486       .  S
C2389      C3524   1.501       .  S
O2390      C2403   1.254       .  A
O2390     Co2398   1.983       .  S
O2391      C2404   1.285       .  A
O2391     Co2399   2.076       .  S
O2392      C2405   1.261       .  A
O2392     Co2400   1.997       .  S
O2393      C2406   1.257       .  A
O2393     Co2401   1.970       .  S
O2394      C2406   1.274       .  A
O2394     Co2399   2.058       .  S
O2395      C2405   1.253       .  A
O2395     Co2398   1.969       .  S
O2396      C2403   1.244       .  A
O2396     Co2401   1.961       .  S
O2397      C2404   1.262       .  A
O2397     Co2400   1.897       .  S
Co2398     O2402   2.049       .  S
Co2399     O2402   2.029       .  S
Co2400     O2402   2.015       .  S
Co2401     O2402   2.026       .  S
C2403      C2616   1.451       .  S
C2404      C2427   1.463       .  S
C2405      C2776   1.459       .  S
C2406      C2536   1.525       .  S
C2407      C2408   1.397       .  A
C2407      C2412   1.405       .  A
C2407      H2414   1.076       .  S
C2408      C3505   1.501   1_545  S
C2408      C2409   1.436       .  A
C2409      C2410   1.411       .  A
C2409      C2416   1.524       .  S
C2410      C2411   1.397       .  A
C2411      C2412   1.419       .  A
C2412      C2413   1.505       .  S
C2413      F2417   1.385       .  S
C2413      F2418   1.373       .  S
C2413      F2419   1.378       .  S
C2416      F3536   1.381   1_545  S
C2416      F3537   1.384   1_545  S
F2420      C3532   1.381       .  S
F2421      C3532   1.384       .  S
C2423      C2424   1.403       .  A
C2423      C2428   1.393       .  A
C2423      H2430   1.075       .  S
C2424      C2425   1.422       .  A
C2425      C2426   1.403       .  A
C2425      C2432   1.521       .  S
C2426      C2427   1.402       .  A
C2426      H2431   1.082       .  S
C2427      C2428   1.410       .  A
C2428      C2429   1.519       .  S
C2429      F2433   1.384       .  S
C2429      F2434   1.375       .  S
C2429      F2435   1.378       .  S
C2432      F2436   1.383       .  S
C2432      F2437   1.383       .  S
C2432      F2438   1.385       .  S
C2439      C2440   1.388       .  A
C2439      C2444   1.396       .  A
C2439      H2446   1.073       .  S
C2440      C2441   1.433       .  A
C2441      C2442   1.420       .  A
C2441      C2448   1.518       .  S
C2442      C2443   1.402       .  A
C2442      H2447   1.083       .  S
C2443      C2444   1.422       .  A
C2444      C2445   1.524       .  S
C2445      F2449   1.379       .  S
C2445      F2450   1.365       .  S
C2445      F2451   1.375       .  S
C2448      F2452   1.381       .  S
C2448      F2453   1.379       .  S
C2448      F2454   1.385       .  S
C2455      C2456   1.400       .  A
C2455      C3018   1.401       .  A
C2455      H2462   1.079       .  S
C2456      C2457   1.413       .  A
C2457      C3016   1.414       .  A
C2457      C2464   1.514       .  S
C2458      C3015   1.414   1_554  A
C2458      C2459   1.408       .  A
C2458      H2463   1.083       .  S
C2459      C2460   1.419       .  A
C2460      C3013   1.401   1_554  A
C2460      C2461   1.519       .  S
C2461      F2465   1.384       .  S
C2461      F2466   1.382       .  S
C2461      F2467   1.378       .  S
C2464      F2468   1.381       .  S
C2464      F2469   1.383       .  S
C2464      F3028   1.384       .  S
F2470      C3022   1.384   1_554  S
C2471      C3030   1.396       .  A
C2471      C2476   1.392       .  A
C2471      H2478   1.084       .  S
C2472      C3029   1.396       .  A
C2472      C3589   1.417       .  A
C2473      C3588   1.417       .  A
C2473      C2474   1.413       .  A
C2473      C2480   1.510       .  S
C2474      C3033   1.403   1_554  A
C2474      H2479   1.083       .  S
C2475      C3032   1.403       .  A
C2475      C3592   1.413       .  A
C2476      C3591   1.413       .  A
C2476      C2477   1.508       .  S
C2477      F2481   1.385       .  S
C2477      F2482   1.383       .  S
C2477      F2483   1.380       .  S
C2480      F2484   1.383       .  S
C2480      F2485   1.375       .  S
C2480      F2486   1.384       .  S
C2487      C2488   1.398       .  A
C2487      C2492   1.409   1_545  A
C2487      H2494   1.083       .  S
C2488      C2489   1.430       .  A
C2489      C3606   1.400   1_545  A
C2489      C2496   1.521       .  S
C2490      C3605   1.400       .  A
C2490      C2491   1.399       .  A
C2490      H2495   1.085       .  S
C2491      C3608   1.428       .  A
C2492      C3607   1.428       .  A
C2492      C2493   1.513       .  S
C2493      F2497   1.385       .  S
C2493      F2498   1.384       .  S
C2493      F3615   1.383       .  S
C2496      F2500   1.368       .  S
C2496      F2501   1.384       .  S
C2496      F3618   1.384       .  S
F2499      C3609   1.383       .  S
F2502      C3612   1.384       .  S
C2503      C2504   1.405       .  A
C2503      C2508   1.406       .  A
C2503      H2510   1.081       .  S
C2504      C3417   1.519   1_545  S
C2504      C2505   1.432       .  A
C2505      C2506   1.414       .  A
C2505      C2512   1.503       .  S
C2506      C2507   1.394       .  A
C2506      H2511   1.083       .  S
C2507      C2508   1.422       .  A
C2508      C2509   1.511       .  S
C2509      F2513   1.385       .  S
C2509      F2514   1.378       .  S
C2509      F2515   1.380       .  S
C2512      F3632   1.376   1_545  S
C2512      F3633   1.383   1_545  S
C2512      F2518   1.385       .  S
F2516      C3628   1.376       .  S
F2517      C3628   1.383       .  S
C2519      C2520   1.399       .  A
C2519      C2524   1.408       .  A
C2519      H2526   1.084       .  S
C2520      C2521   1.425       .  A
C2521      C2522   1.400       .  A
C2521      C2528   1.512       .  S
C2522      C2523   1.394       .  A
C2522      H2527   1.083       .  S
C2523      C2524   1.416       .  A
C2524      C2525   1.501       .  S
C2525      F2529   1.384       .  S
C2525      F2530   1.379       .  S
C2525      F2531   1.383       .  S
C2528      F2532   1.377       .  S
C2528      F2533   1.374       .  S
C2528      F2534   1.385       .  S
C2535      C2536   1.410       .  A
C2535      C2540   1.412       .  A
C2535      H2542   1.081       .  S
C2536      C2537   1.422       .  A
C2537      C2538   1.430       .  A
C2537      C2544   1.516       .  S
C2538      C2539   1.419       .  A
C2538      H2543   1.082       .  S
C2539      C2540   1.425       .  A
C2540      C2541   1.514       .  S
C2541      F2545   1.385       .  S
C2541      F2546   1.383       .  S
C2541      F2547   1.376       .  S
C2544      F2548   1.382       .  S
C2544      F2549   1.383       .  S
C2544      F2550   1.384       .  S
C2551      C2552   1.408       .  A
C2551      C2556   1.416       .  A
C2552      C2553   1.420       .  A
C2553      C2554   1.415       .  A
C2553      C2560   1.509       .  S
C2554      C2555   1.405       .  A
C2554      H2559   1.083       .  S
C2555      C2556   1.414       .  A
C2556      C2557   1.513       .  S
C2557      F2561   1.384       .  S
C2557      F2562   1.382       .  S
C2557      F2563   1.378       .  S
C2560      F2564   1.381       .  S
C2560      F2565   1.380       .  S
C2560      F2566   1.384       .  S
C2567      C3130   1.407       .  A
C2567      H2574   1.083       .  S
C2568      C3127   1.421       .  A
C2569      C3126   1.421   1_554  A
C2569      C2576   1.509       .  S
C2570      C2571   1.403       .  A
C2571      C2572   1.423       .  A
C2572      C3125   1.407   1_554  A
C2572      C3131   1.520       .  S
C2573      C3130   1.520       .  S
C2573      F2577   1.385       .  S
C2573      F3136   1.382       .  S
C2573      F3137   1.382       .  S
C2576      F2580   1.379       .  S
C2576      F3139   1.378   1_554  S
C2576      F2582   1.384       .  S
F2578      C3131   1.382       .  S
F2579      C3131   1.382       .  S
F2581      C3134   1.378       .  S
C2583      C2588   1.423       .  A
C2583      H2590   1.083       .  S
C2584      C2585   1.433       .  A
C2585      C2586   1.410       .  A
C2585      C2592   1.518       .  S
C2586      H2591   1.083       .  S
C2587      C2588   1.431       .  A
C2588      C2589   1.524       .  S
C2589      F2593   1.385       .  S
C2589      F2594   1.383       .  S
C2589      F2595   1.377       .  S
C2592      F2596   1.383       .  S
C2592      F2597   1.374       .  S
C2592      F2598   1.383       .  S
C2599      C3158   1.398   1_554  A
C2599      C2604   1.410       .  A
C2599      H2606   1.082       .  S
C2600      C3157   1.398       .  A
C2600      C3717   1.417   1_545  A
C2601      C3716   1.417       .  A
C2601      C2602   1.397       .  A
C2601      C2608   1.512       .  S
C2602      C3161   1.402       .  A
C2602      H2607   1.081       .  S
C2603      C3160   1.402       .  A
C2603      C3720   1.428       .  A
C2604      C3719   1.428   1_545  A
C2604      C2605   1.515       .  S
C2605      F2609   1.384       .  S
C2605      F2610   1.375       .  S
C2605      F2611   1.382       .  S
C2608      F2612   1.380       .  S
C2608      F2613   1.381       .  S
C2608      F2614   1.385       .  S
C2615      C3732   1.392   1_545  A
C2615      C2620   1.391       .  A
C2615      H2622   1.085       .  S
C2616      C3731   1.392       .  A
C2616      C2617   1.410       .  A
C2617      C3734   1.404       .  A
C2617      C2624   1.512       .  S
C2618      C3733   1.404       .  A
C2618      C2619   1.402   1_565  A
C2618      H3739   1.083       .  S
C2619      C2620   1.417       .  A
C2620      C2621   1.513       .  S
C2621      F2625   1.385       .  S
C2621      F2626   1.381       .  S
C2621      F2627   1.383       .  S
H2623      C3734   1.083       .  S
C2624      F2628   1.383       .  S
C2624      F2629   1.382       .  S
C2624      F2630   1.384       .  S
C2631      C2632   1.394       .  A
C2631      C2636   1.401       .  A
C2631      H2638   1.082       .  S
C2632      C2633   1.429       .  A
C2633      C2634   1.399       .  A
C2633      C2640   1.528       .  S
C2634      C2635   1.403       .  A
C2634      H2639   1.081       .  S
C2635      C2636   1.414       .  A
C2636      C2637   1.494       .  S
C2637      F2641   1.381       .  S
C2637      F2642   1.382       .  S
C2637      F2643   1.384       .  S
C2640      F2644   1.384       .  S
C2640      F2645   1.384       .  S
C2640      F2646   1.385       .  S
C2647      C2648   1.416       .  A
C2647      C2652   1.406       .  A
C2647      H2654   1.082       .  S
C2648      C2649   1.433       .  A
C2649      C2650   1.396       .  A
C2649      C2656   1.538       .  S
C2650      C2651   1.404       .  A
C2650      H2655   1.085       .  S
C2651      C2652   1.411       .  A
C2652      C2653   1.520       .  S
C2653      F2657   1.385       .  S
C2653      F2658   1.383       .  S
C2653      F2659   1.384       .  S
C2656      F2660   1.385       .  S
C2656      F2661   1.374       .  S
C2656      F2662   1.384       .  S
C2663      C2664   1.402       .  A
C2663      H2670   1.083       .  S
C2665      C2666   1.421       .  A
C2665      C2672   1.514       .  S
C2666      C3225   1.409       .  A
C2666      H2671   1.083       .  S
C2667      C3224   1.409       .  A
C2667      C2668   1.408       .  A
C2668      C2669   1.506       .  S
C2669      F2673   1.385       .  S
C2669      F2674   1.381       .  S
C2669      F2675   1.380       .  S
C2672      F2676   1.383       .  S
C2672      F2678   1.384       .  S
C2679      C2684   1.414       .  A
C2679      H2686   1.084       .  S
C2680      C2681   1.425       .  A
C2681      C2682   1.402       .  A
C2681      C2688   1.505       .  S
C2682      H2687   1.084       .  S
C2683      C2684   1.429       .  A
C2684      C2685   1.520       .  S
C2685      F2689   1.383       .  S
C2685      F2690   1.378       .  S
C2685      F2691   1.383       .  S
C2688      F2692   1.377       .  S
C2688      F2693   1.382       .  S
C2688      F2694   1.379       .  S
C2695      C2696   1.404       .  A
C2695      C2700   1.413       .  A
C2695      H2702   1.069       .  S
C2696      C2697   1.423       .  A
C2697      C2698   1.416       .  A
C2697      C2704   1.520       .  S
C2698      C2699   1.411       .  A
C2698      H2703   1.078       .  S
C2699      C3387   1.513       .  S
C2699      C2700   1.422       .  A
C2700      C3817   1.520       .  S
C2701      C3816   1.520   1_545  S
C2701      F2705   1.384       .  S
C2701      F2706   1.382       .  S
C2701      F2707   1.384       .  S
C2704      F2708   1.379       .  S
C2704      F2709   1.382       .  S
C2704      F2710   1.385       .  S
C2711      C2712   1.399       .  A
C2711      C2716   1.410       .  A
C2711      H2718   1.084       .  S
C2712      C2713   1.414       .  A
C2713      C2714   1.404       .  A
C2713      C2720   1.501       .  S
C2714      C2715   1.402       .  A
C2714      H2719   1.078       .  S
C2715      C2716   1.425       .  A
C2716      C2717   1.507       .  S
C2717      F2722   1.382   1_655  S
C2717      F2723   1.368       .  S
C2720      F2724   1.376       .  S
C2720      F2725   1.372       .  S
C2720      F2726   1.384       .  S
C2727      C2728   1.401       .  A
C2727      C2732   1.414       .  A
C2727      H2734   1.085       .  S
C2728      C2729   1.411       .  A
C2729      C2730   1.408       .  A
C2729      C2736   1.502       .  S
C2730      C2731   1.410       .  A
C2730      H3851   1.082       .  S
C2731      C3445   1.509       .  S
C2731      C2732   1.435       .  A
C2732      C2733   1.522       .  S
C2733      F2737   1.378       .  S
C2733      F2738   1.379       .  S
C2733      F2739   1.375       .  S
H2735      C3846   1.082   1_545  S
C2736      F2742   1.384       .  S
C2743      C2744   1.397       .  A
C2743      C2748   1.412       .  A
C2743      H2750   1.083       .  S
C2744      C2745   1.424       .  A
C2745      C2746   1.416       .  A
C2745      C2752   1.516       .  S
C2746      C2747   1.403       .  A
C2746      H2751   1.083       .  S
C2747      C2748   1.418       .  A
C2748      C2749   1.497       .  S
C2749      F2753   1.384       .  S
C2749      F2754   1.380       .  S
C2749      F2755   1.381       .  S
C2752      F2756   1.380       .  S
C2752      F2757   1.377       .  S
C2752      F2758   1.385       .  S
C2759      C2760   1.395       .  A
C2759      C3322   1.407   1_554  A
C2759      H2766   1.082       .  S
C2760      C2761   1.421       .  A
C2761      C3320   1.412   1_554  A
C2761      C2768   1.513       .  S
C2762      C3319   1.412       .  A
C2762      C2763   1.401       .  A
C2762      H2767   1.083       .  S
C2763      C2764   1.428       .  A
C2764      C3317   1.407       .  A
C2764      C2765   1.523       .  S
C2765      F2769   1.385       .  S
C2765      F2770   1.375       .  S
C2765      F2771   1.382       .  S
C2768      F2772   1.376       .  S
C2768      F2773   1.381       .  S
C2768      F2774   1.385       .  S
C2775      C2776   1.388       .  A
C2775      C2780   1.397       .  A
C2775      H2782   1.082       .  S
C2776      C2777   1.409       .  A
C2777      C2778   1.408       .  A
C2777      C2784   1.515       .  S
C2778      C2779   1.409       .  A
C2778      H2783   1.083       .  S
C2779      C2780   1.431       .  A
C2780      C2781   1.520       .  S
C2781      F2785   1.380       .  S
C2781      F2786   1.378       .  S
C2781      F2787   1.375       .  S
C2784      F2788   1.381       .  S
C2784      F2789   1.380       .  S
C2784      F2790   1.384       .  S
O2791      C2799   1.254       .  A
O2791     Co2811   2.015       .  S
O2792      C2800   1.257       .  A
O2792     Co2812   1.936       .  S
O2793      C2801   1.279       .  A
O2793     Co2813   2.037       .  S
O2794      C2802   1.246   1_655  A
O2794     Co2814   1.972       .  S
O2795      C2801   1.255       .  A
O2795     Co2812   1.957       .  S
O2796      C2802   1.259   1_655  A
O2796     Co2811   2.024       .  S
O2797      C2800   1.271       .  A
O2797     Co2814   2.038       .  S
O2798      C2799   1.249       .  A
O2798     Co2813   1.985       .  S
C2799      C3254   1.513       .  S
C2800      C3222   1.488       .  S
C2801      C3321   1.486       .  S
O2803      C2816   1.289       .  A
O2803     Co2811   2.052       .  S
O2804      C2817   1.268       .  A
O2804     Co2812   2.036       .  S
O2805      C2818   1.280       .  A
O2805     Co2813   1.924       .  S
O2806      C2819   1.261       .  A
O2806     Co2814   1.989       .  S
O2807      C2819   1.270       .  A
O2807     Co2812   2.024       .  S
O2808      C2818   1.286       .  A
O2808     Co2811   2.040       .  S
O2809      C2816   1.278       .  A
O2809     Co2814   1.917       .  S
O2810      C2817   1.259       .  A
O2810     Co2813   1.997       .  S
Co2811     O2815   2.232       .  S
Co2812     O2815   2.079       .  S
Co2813     O2815   1.997       .  S
Co2814     O2815   1.988       .  S
C2816      C3241   1.490       .  S
C2817      C3305   1.504       .  S
C2818      C3337   1.488       .  S
C2819      C3273   1.508       .  S
O2820      C2828   1.250       .  A
O2820     Co2840   1.960       .  S
O2821      C2829   1.268       .  A
O2821     Co2841   1.985       .  S
O2822      C2830   1.302       .  A
O2823      C2831   1.262       .  A
O2823     Co2843   2.004       .  S
O2824     Co2841   1.847       .  S
O2825      C2831   1.251       .  A
O2825     Co2840   1.943       .  S
O2826      C2829   1.280       .  A
O2826     Co2843   2.037       .  S
O2827      C2828   1.276       .  A
O2827     Co2842   2.074       .  S
C2828      C3142   1.511       .  S
C2829      C4373   1.513   1_545  S
C2830      C3190   1.477       .  S
C2831      C3177   1.461       .  S
O2832      C2845   1.277       .  A
O2832     Co2840   2.016       .  S
O2833      C2846   1.304       .  A
O2833     Co2841   2.119       .  S
O2834      C2847   1.264       .  A
O2834     Co2842   1.976       .  S
O2835      C2848   1.253       .  A
O2835     Co2843   1.987       .  S
O2836      C2848   1.251       .  A
O2836     Co2841   1.990       .  S
O2837      C2847   1.275       .  A
O2837     Co2840   2.036       .  S
O2838      C2845   1.254       .  A
O2838     Co2843   1.935       .  S
O2839      C2846   1.272       .  A
O2839     Co2842   1.891       .  S
Co2840     O2844   2.015       .  S
Co2841     O2844   1.977       .  S
Co2842     O2844   2.041       .  S
Co2843     O2844   2.069       .  S
C2845      C3206   1.485       .  S
C2846      C3126   1.500       .  S
C2847      C3270   1.491       .  S
C2848      C3158   1.482       .  S
O2849      C2857   1.289       .  A
O2849     Co2869   2.095       .  S
O2850      C2858   1.265       .  A
O2850     Co2870   2.016       .  S
O2851      C2859   1.267       .  A
O2851     Co2871   1.971       .  S
O2852      C2860   1.249       .  A
O2852     Co2872   1.946       .  S
O2853      C2859   1.288       .  A
O2853     Co2870   2.054       .  S
O2854      C2860   1.268       .  A
O2854     Co2869   2.036       .  S
O2855      C2858   1.258       .  A
O2855     Co2872   1.950       .  S
O2856      C2857   1.271       .  A
O2856     Co2871   1.946       .  S
C2858      C3030   1.477       .  S
C2859      C4178   1.519       .  S
C2860      C3225   1.478       .  S
O2861      C2874   1.264       .  A
O2861     Co2869   1.963       .  S
O2862      C2875   1.253       .  A
O2862     Co2870   1.959       .  S
O2863      C2876   1.286       .  A
O2863     Co2871   2.076       .  S
O2864      C2877   1.274       .  A
O2864     Co2872   2.039       .  S
O2865      C2877   1.270       .  A
O2865     Co2870   2.000       .  S
O2866      C2876   1.270       .  A
O2866     Co2869   1.923       .  S
O2867      C2874   1.281       .  A
O2867     Co2872   2.041       .  S
O2868      C2875   1.272       .  A
O2868     Co2871   2.024       .  S
Co2869     O2873   2.049       .  S
Co2870     O2873   2.055       .  S
Co2871     O2873   2.037       .  S
Co2872     O2873   2.027       .  S
C2874      C3078   1.482       .  S
C2875      C3049   1.501       .  S
C2876      C3238   1.506       .  S
C2877      C3097   1.530       .  S
O2878      C2886   1.269       .  A
O2878     Co2898   2.062       .  S
O2879      C2887   1.268       .  A
O2879     Co2899   2.026       .  S
O2880      C2888   1.247       .  A
O2880     Co2900   1.931       .  S
O2881      C2889   1.260       .  A
O2881     Co2901   1.862       .  S
O2882      C2888   1.276       .  A
O2882     Co2899   2.034       .  S
O2883      C2889   1.300       .  A
O2883     Co2898   2.110       .  S
O2884      C2887   1.268       .  A
O2884     Co2901   1.974       .  S
O2885      C2886   1.239       .  A
O2885     Co2900   1.927       .  S
C2886      C2998   1.488       .  S
C2887      C4405   1.509   1_545  S
C2888      C3046   1.483       .  S
C2889      C3193   1.490       .  S
O2890      C2903   1.272       .  A
O2890     Co2898   1.914       .  S
O2891      C2904   1.252       .  A
O2891     Co2899   1.923       .  S
O2892      C2905   1.278       .  A
O2892     Co2900   2.045       .  S
O2893      C2906   1.260       .  A
O2893     Co2901   2.005       .  S
O2894      C2906   1.252       .  A
O2894     Co2899   1.979       .  S
O2895      C2905   1.269       .  A
O2895     Co2898   1.981       .  S
O2896      C2903   1.293       .  A
O2896     Co2901   2.082       .  S
O2897      C2904   1.268       .  A
O2897     Co2900   2.015       .  S
Co2898     O2902   2.048       .  S
Co2899     O2902   2.047       .  S
Co2900     O2902   2.041       .  S
Co2901     O2902   1.996       .  S
C2903      C3014   1.480       .  S
C2904      C3209   1.480       .  S
C2905      C3302   1.493       .  S
C2906      C3033   1.472       .  S
O2907      C2915   1.268       .  A
O2907     Co2927   2.015       .  S
O2908      C2916   1.296       .  A
O2908     Co2928   2.055       .  S
O2909      C2917   1.281       .  A
O2909     Co2929   1.945       .  S
O2910      C2918   1.250       .  A
O2910     Co2930   1.980       .  S
O2911      C2917   1.290       .  A
O2911     Co2928   2.044       .  S
O2912      C2918   1.268       .  A
O2912     Co2927   2.066       .  S
O2913      C2916   1.279       .  A
O2913     Co2930   1.926       .  S
O2914      C2915   1.262       .  A
O2914     Co2929   1.992       .  S
C2916      C3017   1.483       .  S
C2917      C3129   1.499       .  S
C2918      C3065   1.495       .  S
O2919      C2932   1.245       .  A
O2919     Co2927   1.949       .  S
O2920      C2933   1.256       .  A
O2920     Co2928   2.004       .  S
O2921      C2934   1.279       .  A
O2921     Co2929   2.051       .  S
O2922      C2935   1.238       .  A
O2922     Co2930   1.948       .  S
O2923      C2935   1.253       .  A
O2923     Co2928   1.986       .  S
O2924      C2934   1.252       .  A
O2924     Co2927   1.969       .  S
O2925      C2932   1.274       .  A
O2925     Co2930   2.053       .  S
O2926      C2933   1.248       .  A
O2926     Co2929   1.957       .  S
Co2927     O2931   2.055       .  S
Co2928     O2931   2.230       .  S
Co2929     O2931   1.966       .  S
Co2930     O2931   1.949       .  S
C2932      C3001   1.487       .  S
C2933      C3081   1.481       .  S
C2934      C3145   1.509       .  S
C2935      C2982   1.478       .  S
O2936      C2944   1.256       .  A
O2936     Co2956   1.964       .  S
O2937      C2945   1.267       .  A
O2937     Co2957   1.964       .  S
O2938      C2946   1.307       .  A
O2938     Co2958   2.095       .  S
O2939      C2947   1.291       .  A
O2939     Co2959   2.077       .  S
O2940      C2946   1.270       .  A
O2940     Co2957   1.929       .  S
O2941      C2947   1.254       .  A
O2941     Co2956   1.932       .  S
O2942      C2945   1.268       .  A
O2942     Co2959   2.008       .  S
O2943      C2944   1.287       .  A
O2943     Co2958   2.052       .  S
C2944      C3113   1.489       .  S
C2945      C3161   1.492       .  S
C2946      C3318   1.486       .  S
C2947      C4082   1.501       .  S
O2948      C2961   1.254       .  A
O2948     Co2956   1.983       .  S
O2949      C2962   1.285       .  A
O2949     Co2957   2.076       .  S
O2950      C2963   1.261       .  A
O2950     Co2958   1.997       .  S
O2951      C2964   1.257       .  A
O2951     Co2959   1.970       .  S
O2952      C2964   1.274       .  A
O2952     Co2957   2.058       .  S
O2953      C2963   1.253       .  A
O2953     Co2956   1.969       .  S
O2954      C2961   1.244       .  A
O2954     Co2959   1.961       .  S
O2955      C2962   1.262       .  A
O2955     Co2958   1.897       .  S
Co2956     O2960   2.049       .  S
Co2957     O2960   2.029       .  S
Co2958     O2960   2.015       .  S
Co2959     O2960   2.026       .  S
C2961      C3174   1.451       .  S
C2962      C2985   1.463       .  S
C2963      C3334   1.459       .  S
C2964      C3094   1.525       .  S
C2965      C2966   1.397       .  A
C2965      C2970   1.405       .  A
C2965      H2972   1.076       .  S
C2966      C4063   1.501   1_545  S
C2966      C2967   1.436       .  A
C2967      C2968   1.411       .  A
C2967      C2974   1.524       .  S
C2968      C2969   1.397       .  A
C2969      C2970   1.419       .  A
C2970      C2971   1.505       .  S
C2971      F2975   1.385       .  S
C2971      F2976   1.373       .  S
C2971      F2977   1.378       .  S
C2974      F4094   1.381   1_545  S
C2974      F4095   1.384   1_545  S
F2978      C4090   1.381       .  S
F2979      C4090   1.384       .  S
C2981      C2982   1.403       .  A
C2981      C2986   1.393       .  A
C2981      H2988   1.075       .  S
C2982      C2983   1.422       .  A
C2983      C2984   1.403       .  A
C2983      C2990   1.521       .  S
C2984      C2985   1.402       .  A
C2984      H2989   1.082       .  S
C2985      C2986   1.410       .  A
C2986      C2987   1.519       .  S
C2987      F2991   1.384       .  S
C2987      F2992   1.375       .  S
C2987      F2993   1.378       .  S
C2990      F2994   1.383       .  S
C2990      F2995   1.383       .  S
C2990      F2996   1.385       .  S
C2997      C2998   1.388       .  A
C2997      C3002   1.396       .  A
C2997      H3004   1.073       .  S
C2998      C2999   1.433       .  A
C2999      C3000   1.420       .  A
C2999      C3006   1.518       .  S
C3000      C3001   1.402       .  A
C3000      H3005   1.083       .  S
C3001      C3002   1.422       .  A
C3002      C3003   1.524       .  S
C3003      F3007   1.379       .  S
C3003      F3008   1.365       .  S
C3003      F3009   1.375       .  S
C3006      F3010   1.381       .  S
C3006      F3011   1.379       .  S
C3006      F3012   1.385       .  S
C3013      C3014   1.400       .  A
C3013      H3020   1.079       .  S
C3014      C3015   1.413       .  A
C3015      C3022   1.514       .  S
C3016      C3017   1.408       .  A
C3016      H3021   1.083       .  S
C3017      C3018   1.419       .  A
C3018      C3019   1.519       .  S
C3019      F3023   1.384       .  S
C3019      F3024   1.382       .  S
C3019      F3025   1.378       .  S
C3022      F3026   1.381       .  S
C3022      F3027   1.383       .  S
C3029      C3034   1.392   1_554  A
C3029      H3036   1.084       .  S
C3030      C4147   1.417       .  A
C3031      C4146   1.417       .  A
C3031      C3032   1.413       .  A
C3031      C3038   1.510       .  S
C3032      H3037   1.083       .  S
C3033      C4150   1.413       .  A
C3034      C4149   1.413       .  A
C3034      C3035   1.508       .  S
C3035      F3039   1.385       .  S
C3035      F3040   1.383       .  S
C3035      F3041   1.380       .  S
C3038      F3042   1.383       .  S
C3038      F3043   1.375       .  S
C3038      F3044   1.384       .  S
C3045      C3046   1.398       .  A
C3045      C3050   1.409   1_545  A
C3045      H3052   1.083       .  S
C3046      C3047   1.430       .  A
C3047      C4164   1.400   1_545  A
C3047      C3054   1.521       .  S
C3048      C4163   1.400       .  A
C3048      C3049   1.399       .  A
C3048      H3053   1.085       .  S
C3049      C4166   1.428       .  A
C3050      C4165   1.428       .  A
C3050      C3051   1.513       .  S
C3051      F3055   1.385       .  S
C3051      F3056   1.384       .  S
C3051      F4173   1.383       .  S
C3054      F3058   1.368       .  S
C3054      F3059   1.384       .  S
C3054      F4176   1.384       .  S
F3057      C4167   1.383       .  S
F3060      C4170   1.384       .  S
C3061      C3062   1.405       .  A
C3061      C3066   1.406       .  A
C3061      H3068   1.081       .  S
C3062      C3975   1.519   1_545  S
C3062      C3063   1.432       .  A
C3063      C3064   1.414       .  A
C3063      C3070   1.503       .  S
C3064      C3065   1.394       .  A
C3064      H3069   1.083       .  S
C3065      C3066   1.422       .  A
C3066      C3067   1.511       .  S
C3067      F3071   1.385       .  S
C3067      F3072   1.378       .  S
C3067      F3073   1.380       .  S
C3070      F4190   1.376   1_545  S
C3070      F4191   1.383   1_545  S
C3070      F3076   1.385       .  S
F3074      C4186   1.376       .  S
F3075      C4186   1.383       .  S
C3077      C3078   1.399       .  A
C3077      C3082   1.408       .  A
C3077      H3084   1.084       .  S
C3078      C3079   1.425       .  A
C3079      C3080   1.400       .  A
C3079      C3086   1.512       .  S
C3080      C3081   1.394       .  A
C3080      H3085   1.083       .  S
C3081      C3082   1.416       .  A
C3082      C3083   1.501       .  S
C3083      F3087   1.384       .  S
C3083      F3088   1.379       .  S
C3083      F3089   1.383       .  S
C3086      F3090   1.377       .  S
C3086      F3091   1.374       .  S
C3086      F3092   1.385       .  S
C3093      C3094   1.410       .  A
C3093      C3098   1.412       .  A
C3093      H3100   1.081       .  S
C3094      C3095   1.422       .  A
C3095      C3096   1.430       .  A
C3095      C3102   1.516       .  S
C3096      C3097   1.419       .  A
C3096      H3101   1.082       .  S
C3097      C3098   1.425       .  A
C3098      C3099   1.514       .  S
C3099      F3103   1.385       .  S
C3099      F3104   1.383       .  S
C3099      F3105   1.376       .  S
C3102      F3106   1.382       .  S
C3102      F3107   1.383       .  S
C3102      F3108   1.384       .  S
C3109      C3110   1.408       .  A
C3109      C3114   1.416       .  A
C3110      C3111   1.420       .  A
C3111      C3112   1.415       .  A
C3111      C3118   1.509       .  S
C3112      C3113   1.405       .  A
C3112      H3117   1.083       .  S
C3113      C3114   1.414       .  A
C3114      C3115   1.513       .  S
C3115      F3119   1.384       .  S
C3115      F3120   1.382       .  S
C3115      F3121   1.378       .  S
C3118      F3122   1.381       .  S
C3118      F3123   1.380       .  S
C3118      F3124   1.384       .  S
C3125      H3132   1.083       .  S
C3127      C3134   1.509       .  S
C3128      C3129   1.403       .  A
C3129      C3130   1.423       .  A
C3131      F3135   1.385   1_554  S
C3134      F3138   1.379       .  S
C3134      F3140   1.384       .  S
C3141      C3146   1.423       .  A
C3141      H3148   1.083       .  S
C3142      C3143   1.433       .  A
C3143      C3144   1.410       .  A
C3143      C3150   1.518       .  S
C3144      H3149   1.083       .  S
C3145      C3146   1.431       .  A
C3146      C3147   1.524       .  S
C3147      F3151   1.385       .  S
C3147      F3152   1.383       .  S
C3147      F3153   1.377       .  S
C3150      F3154   1.383       .  S
C3150      F3155   1.374       .  S
C3150      F3156   1.383       .  S
C3157      C3162   1.410       .  A
C3157      H3164   1.082       .  S
C3158      C4275   1.417   1_545  A
C3159      C4274   1.417       .  A
C3159      C3160   1.397   1_556  A
C3159      C3166   1.512       .  S
C3160      H3165   1.081       .  S
C3161      C4278   1.428       .  A
C3162      C4277   1.428   1_545  A
C3162      C3163   1.515       .  S
C3163      F3167   1.384       .  S
C3163      F3168   1.375       .  S
C3163      F3169   1.382       .  S
C3166      F3170   1.380       .  S
C3166      F3171   1.381       .  S
C3166      F3172   1.385       .  S
C3173      C4290   1.392   1_545  A
C3173      C3178   1.391       .  A
C3173      H3180   1.085       .  S
C3174      C4289   1.392       .  A
C3174      C3175   1.410       .  A
C3175      C4292   1.404       .  A
C3175      C3182   1.512       .  S
C3176      C4291   1.404       .  A
C3176      C3177   1.402   1_565  A
C3176      H4297   1.083       .  S
C3177      C3178   1.417       .  A
C3178      C3179   1.513       .  S
C3179      F3183   1.385       .  S
C3179      F3184   1.381       .  S
C3179      F3185   1.383       .  S
H3181      C4292   1.083       .  S
C3182      F3186   1.383       .  S
C3182      F3187   1.382       .  S
C3182      F3188   1.384       .  S
C3189      C3190   1.394       .  A
C3189      C3194   1.401       .  A
C3189      H3196   1.082       .  S
C3190      C3191   1.429       .  A
C3191      C3192   1.399       .  A
C3191      C3198   1.528       .  S
C3192      C3193   1.403       .  A
C3192      H3197   1.081       .  S
C3193      C3194   1.414       .  A
C3194      C3195   1.494       .  S
C3195      F3199   1.381       .  S
C3195      F3200   1.382       .  S
C3195      F3201   1.384       .  S
C3198      F3202   1.384       .  S
C3198      F3203   1.384       .  S
C3198      F3204   1.385       .  S
C3205      C3206   1.416       .  A
C3205      C3210   1.406       .  A
C3205      H3212   1.082       .  S
C3206      C3207   1.433       .  A
C3207      C3208   1.396       .  A
C3207      C3214   1.538       .  S
C3208      C3209   1.404       .  A
C3208      H3213   1.085       .  S
C3209      C3210   1.411       .  A
C3210      C3211   1.520       .  S
C3211      F3215   1.385       .  S
C3211      F3216   1.383       .  S
C3211      F3217   1.384       .  S
C3214      F3218   1.385       .  S
C3214      F3219   1.374       .  S
C3214      F3220   1.384       .  S
C3221      C3222   1.402       .  A
C3221      H3228   1.083       .  S
C3223      C3224   1.421   1_556  A
C3223      C3230   1.514       .  S
C3224      H3229   1.083       .  S
C3225      C3226   1.408       .  A
C3226      C3227   1.506       .  S
C3227      F3231   1.385       .  S
C3227      F3232   1.381       .  S
C3227      F3233   1.380       .  S
C3230      F3234   1.383       .  S
C3230      F3236   1.384       .  S
C3237      C3242   1.414       .  A
C3237      H3244   1.084       .  S
C3238      C3239   1.425       .  A
C3239      C3240   1.402       .  A
C3239      C3246   1.505       .  S
C3240      H3245   1.084       .  S
C3241      C3242   1.429       .  A
C3242      C3243   1.520       .  S
C3243      F3247   1.383       .  S
C3243      F3248   1.378       .  S
C3243      F3249   1.383       .  S
C3246      F3250   1.377       .  S
C3246      F3251   1.382       .  S
C3246      F3252   1.379       .  S
C3253      C3254   1.404       .  A
C3253      C3258   1.413       .  A
C3253      H3260   1.069       .  S
C3254      C3255   1.423       .  A
C3255      C3256   1.416       .  A
C3255      C3262   1.520       .  S
C3256      C3257   1.411       .  A
C3256      H3261   1.078       .  S
C3257      C3945   1.513       .  S
C3257      C3258   1.422       .  A
C3258      C4375   1.520       .  S
C3259      C4374   1.520   1_545  S
C3259      F3263   1.384       .  S
C3259      F3264   1.382       .  S
C3259      F3265   1.384       .  S
C3262      F3266   1.379       .  S
C3262      F3267   1.382       .  S
C3262      F3268   1.385       .  S
C3269      C3270   1.399       .  A
C3269      C3274   1.410       .  A
C3269      H3276   1.084       .  S
C3270      C3271   1.414       .  A
C3271      C3272   1.404       .  A
C3271      C3278   1.501       .  S
C3272      C3273   1.402       .  A
C3272      H3277   1.078       .  S
C3273      C3274   1.425       .  A
C3274      C3275   1.507       .  S
C3275      F3280   1.382   1_655  S
C3275      F3281   1.368       .  S
C3278      F3282   1.376       .  S
C3278      F3283   1.372       .  S
C3278      F3284   1.384       .  S
C3285      C3286   1.401       .  A
C3285      C3290   1.414       .  A
C3285      H3292   1.085       .  S
C3286      C3287   1.411       .  A
C3287      C3288   1.408       .  A
C3287      C3294   1.502       .  S
C3288      C3289   1.410       .  A
C3288      H4409   1.082       .  S
C3289      C4003   1.509       .  S
C3289      C3290   1.435       .  A
C3290      C3291   1.522       .  S
C3291      F3295   1.378       .  S
C3291      F3296   1.379       .  S
C3291      F3297   1.375       .  S
H3293      C4404   1.082   1_545  S
C3294      F3300   1.384       .  S
C3301      C3302   1.397       .  A
C3301      C3306   1.412       .  A
C3301      H3308   1.083       .  S
C3302      C3303   1.424       .  A
C3303      C3304   1.416       .  A
C3303      C3310   1.516       .  S
C3304      C3305   1.403       .  A
C3304      H3309   1.083       .  S
C3305      C3306   1.418       .  A
C3306      C3307   1.497       .  S
C3307      F3311   1.384       .  S
C3307      F3312   1.380       .  S
C3307      F3313   1.381       .  S
C3310      F3314   1.380       .  S
C3310      F3315   1.377       .  S
C3310      F3316   1.385       .  S
C3317      C3318   1.395       .  A
C3317      H3324   1.082       .  S
C3318      C3319   1.421       .  A
C3319      C3326   1.513       .  S
C3320      C3321   1.401       .  A
C3320      H3325   1.083       .  S
C3321      C3322   1.428       .  A
C3322      C3323   1.523       .  S
C3323      F3327   1.385       .  S
C3323      F3328   1.375       .  S
C3323      F3329   1.382       .  S
C3326      F3330   1.376       .  S
C3326      F3331   1.381       .  S
C3326      F3332   1.385       .  S
C3333      C3334   1.388       .  A
C3333      C3338   1.397       .  A
C3333      H3340   1.082       .  S
C3334      C3335   1.409       .  A
C3335      C3336   1.408       .  A
C3335      C3342   1.515       .  S
C3336      C3337   1.409       .  A
C3336      H3341   1.083       .  S
C3337      C3338   1.431       .  A
C3338      C3339   1.520       .  S
C3339      F3343   1.380       .  S
C3339      F3344   1.378       .  S
C3339      F3345   1.375       .  S
C3342      F3346   1.381       .  S
C3342      F3347   1.380       .  S
C3342      F3348   1.384       .  S
O3349      C3357   1.254       .  A
O3349     Co3369   2.015       .  S
O3350      C3358   1.257       .  A
O3350     Co3370   1.936       .  S
O3351      C3359   1.279       .  A
O3351     Co3371   2.037       .  S
O3352      C3360   1.246   1_655  A
O3352     Co3372   1.972       .  S
O3353      C3359   1.255       .  A
O3353     Co3370   1.957       .  S
O3354      C3360   1.259   1_655  A
O3354     Co3369   2.024       .  S
O3355      C3358   1.271       .  A
O3355     Co3372   2.038       .  S
O3356      C3357   1.249       .  A
O3356     Co3371   1.985       .  S
C3357      C3812   1.513       .  S
C3358      C3780   1.488       .  S
C3359      C3879   1.486       .  S
O3361      C3374   1.289       .  A
O3361     Co3369   2.052       .  S
O3362      C3375   1.268       .  A
O3362     Co3370   2.036       .  S
O3363      C3376   1.280       .  A
O3363     Co3371   1.924       .  S
O3364      C3377   1.261       .  A
O3364     Co3372   1.989       .  S
O3365      C3377   1.270       .  A
O3365     Co3370   2.024       .  S
O3366      C3376   1.286       .  A
O3366     Co3369   2.040       .  S
O3367      C3374   1.278       .  A
O3367     Co3372   1.917       .  S
O3368      C3375   1.259       .  A
O3368     Co3371   1.997       .  S
Co3369     O3373   2.232       .  S
Co3370     O3373   2.079       .  S
Co3371     O3373   1.997       .  S
Co3372     O3373   1.988       .  S
C3374      C3799   1.490       .  S
C3375      C3863   1.504       .  S
C3376      C3895   1.488       .  S
C3377      C3831   1.508       .  S
O3378      C3386   1.250       .  A
O3378     Co3398   1.960       .  S
O3379      C3387   1.268       .  A
O3379     Co3399   1.985       .  S
O3380      C3388   1.302       .  A
O3381      C3389   1.262       .  A
O3381     Co3401   2.004       .  S
O3382     Co3399   1.847       .  S
O3383      C3389   1.251       .  A
O3383     Co3398   1.943       .  S
O3384      C3387   1.280       .  A
O3384     Co3401   2.037       .  S
O3385      C3386   1.276       .  A
O3385     Co3400   2.074       .  S
C3386      C3700   1.511       .  S
C3388      C3748   1.477       .  S
C3389      C3735   1.461       .  S
O3390      C3403   1.277       .  A
O3390     Co3398   2.016       .  S
O3391      C3404   1.304       .  A
O3391     Co3399   2.119       .  S
O3392      C3405   1.264       .  A
O3392     Co3400   1.976       .  S
O3393      C3406   1.253       .  A
O3393     Co3401   1.987       .  S
O3394      C3406   1.251       .  A
O3394     Co3399   1.990       .  S
O3395      C3405   1.275       .  A
O3395     Co3398   2.036       .  S
O3396      C3403   1.254       .  A
O3396     Co3401   1.935       .  S
O3397      C3404   1.272       .  A
O3397     Co3400   1.891       .  S
Co3398     O3402   2.015       .  S
Co3399     O3402   1.977       .  S
Co3400     O3402   2.041       .  S
Co3401     O3402   2.069       .  S
C3403      C3764   1.485       .  S
C3404      C3684   1.500       .  S
C3405      C3828   1.491       .  S
C3406      C3716   1.482       .  S
O3407      C3415   1.289       .  A
O3407     Co3427   2.095       .  S
O3408      C3416   1.265       .  A
O3408     Co3428   2.016       .  S
O3409      C3417   1.267       .  A
O3409     Co3429   1.971       .  S
O3410      C3418   1.249       .  A
O3410     Co3430   1.946       .  S
O3411      C3417   1.288       .  A
O3411     Co3428   2.054       .  S
O3412      C3418   1.268       .  A
O3412     Co3427   2.036       .  S
O3413      C3416   1.258       .  A
O3413     Co3430   1.950       .  S
O3414      C3415   1.271       .  A
O3414     Co3429   1.946       .  S
C3416      C3588   1.477   1_565  S
C3418      C3783   1.478       .  S
O3419      C3432   1.264       .  A
O3419     Co3427   1.963       .  S
O3420      C3433   1.253       .  A
O3420     Co3428   1.959       .  S
O3421      C3434   1.286       .  A
O3421     Co3429   2.076       .  S
O3422      C3435   1.274       .  A
O3422     Co3430   2.039       .  S
O3423      C3435   1.270       .  A
O3423     Co3428   2.000       .  S
O3424      C3434   1.270       .  A
O3424     Co3427   1.923       .  S
O3425      C3432   1.281       .  A
O3425     Co3430   2.041       .  S
O3426      C3433   1.272       .  A
O3426     Co3429   2.024       .  S
Co3427     O3431   2.049       .  S
Co3428     O3431   2.055       .  S
Co3429     O3431   2.037       .  S
Co3430     O3431   2.027       .  S
C3432      C3636   1.482       .  S
C3433      C3607   1.501       .  S
C3434      C3796   1.506       .  S
C3435      C3655   1.530       .  S
O3436      C3444   1.269       .  A
O3436     Co3456   2.062       .  S
O3437      C3445   1.268       .  A
O3437     Co3457   2.026       .  S
O3438      C3446   1.247       .  A
O3438     Co3458   1.931       .  S
O3439      C3447   1.260       .  A
O3439     Co3459   1.862       .  S
O3440      C3446   1.276       .  A
O3440     Co3457   2.034       .  S
O3441      C3447   1.300       .  A
O3441     Co3456   2.110       .  S
O3442      C3445   1.268       .  A
O3442     Co3459   1.974       .  S
O3443      C3444   1.239       .  A
O3443     Co3458   1.927       .  S
C3444      C3556   1.488       .  S
C3446      C3604   1.483       .  S
C3447      C3751   1.490       .  S
O3448      C3461   1.272       .  A
O3448     Co3456   1.914       .  S
O3449      C3462   1.252       .  A
O3449     Co3457   1.923       .  S
O3450      C3463   1.278       .  A
O3450     Co3458   2.045       .  S
O3451      C3464   1.260       .  A
O3451     Co3459   2.005       .  S
O3452      C3464   1.252       .  A
O3452     Co3457   1.979       .  S
O3453      C3463   1.269       .  A
O3453     Co3456   1.981       .  S
O3454      C3461   1.293       .  A
O3454     Co3459   2.082       .  S
O3455      C3462   1.268       .  A
O3455     Co3458   2.015       .  S
Co3456     O3460   2.048       .  S
Co3457     O3460   2.047       .  S
Co3458     O3460   2.041       .  S
Co3459     O3460   1.996       .  S
C3461      C3572   1.480       .  S
C3462      C3767   1.480       .  S
C3463      C3860   1.493       .  S
C3464      C3591   1.472       .  S
O3465      C3473   1.268       .  A
O3465     Co3485   2.015       .  S
O3466      C3474   1.296       .  A
O3466     Co3486   2.055       .  S
O3467      C3475   1.281       .  A
O3467     Co3487   1.945       .  S
O3468      C3476   1.250       .  A
O3468     Co3488   1.980       .  S
O3469      C3475   1.290       .  A
O3469     Co3486   2.044       .  S
O3470      C3476   1.268       .  A
O3470     Co3485   2.066       .  S
O3471      C3474   1.279       .  A
O3471     Co3488   1.926       .  S
O3472      C3473   1.262       .  A
O3472     Co3487   1.992       .  S
C3474      C3575   1.483       .  S
C3475      C3687   1.499       .  S
C3476      C3623   1.495       .  S
O3477      C3490   1.245       .  A
O3477     Co3485   1.949       .  S
O3478      C3491   1.256       .  A
O3478     Co3486   2.004       .  S
O3479      C3492   1.279       .  A
O3479     Co3487   2.051       .  S
O3480      C3493   1.238       .  A
O3480     Co3488   1.948       .  S
O3481      C3493   1.253       .  A
O3481     Co3486   1.986       .  S
O3482      C3492   1.252       .  A
O3482     Co3485   1.969       .  S
O3483      C3490   1.274       .  A
O3483     Co3488   2.053       .  S
O3484      C3491   1.248       .  A
O3484     Co3487   1.957       .  S
Co3485     O3489   2.055       .  S
Co3486     O3489   2.230       .  S
Co3487     O3489   1.966       .  S
Co3488     O3489   1.949       .  S
C3490      C3559   1.487       .  S
C3491      C3639   1.481       .  S
C3492      C3703   1.509       .  S
C3493      C3540   1.478       .  S
O3494      C3502   1.256       .  A
O3494     Co3514   1.964       .  S
O3495      C3503   1.267       .  A
O3495     Co3515   1.964       .  S
O3496      C3504   1.307       .  A
O3496     Co3516   2.095       .  S
O3497      C3505   1.291       .  A
O3497     Co3517   2.077       .  S
O3498      C3504   1.270       .  A
O3498     Co3515   1.929       .  S
O3499      C3505   1.254       .  A
O3499     Co3514   1.932       .  S
O3500      C3503   1.268       .  A
O3500     Co3517   2.008       .  S
O3501      C3502   1.287       .  A
O3501     Co3516   2.052       .  S
C3502      C3671   1.489       .  S
C3503      C3719   1.492       .  S
C3504      C3876   1.486       .  S
O3506      C3519   1.254       .  A
O3506     Co3514   1.983       .  S
O3507      C3520   1.285       .  A
O3507     Co3515   2.076       .  S
O3508      C3521   1.261       .  A
O3508     Co3516   1.997       .  S
O3509      C3522   1.257       .  A
O3509     Co3517   1.970       .  S
O3510      C3522   1.274       .  A
O3510     Co3515   2.058       .  S
O3511      C3521   1.253       .  A
O3511     Co3514   1.969       .  S
O3512      C3519   1.244       .  A
O3512     Co3517   1.961       .  S
O3513      C3520   1.262       .  A
O3513     Co3516   1.897       .  S
Co3514     O3518   2.049       .  S
Co3515     O3518   2.029       .  S
Co3516     O3518   2.015       .  S
Co3517     O3518   2.026       .  S
C3519      C3732   1.451       .  S
C3520      C3543   1.463       .  S
C3521      C3892   1.459       .  S
C3522      C3652   1.525       .  S
C3523      C3524   1.397       .  A
C3523      C3528   1.405       .  A
C3523      H3530   1.076       .  S
C3524      C3525   1.436       .  A
C3525      C3526   1.411       .  A
C3525      C3532   1.524       .  S
C3526      C3527   1.397       .  A
C3527      C3528   1.419       .  A
C3528      C3529   1.505       .  S
C3529      F3533   1.385       .  S
C3529      F3534   1.373       .  S
C3529      F3535   1.378       .  S
C3539      C3540   1.403       .  A
C3539      C3544   1.393       .  A
C3539      H3546   1.075       .  S
C3540      C3541   1.422       .  A
C3541      C3542   1.403       .  A
C3541      C3548   1.521       .  S
C3542      C3543   1.402       .  A
C3542      H3547   1.082       .  S
C3543      C3544   1.410       .  A
C3544      C3545   1.519       .  S
C3545      F3549   1.384       .  S
C3545      F3550   1.375       .  S
C3545      F3551   1.378       .  S
C3548      F3552   1.383       .  S
C3548      F3553   1.383       .  S
C3548      F3554   1.385       .  S
C3555      C3556   1.388       .  A
C3555      C3560   1.396       .  A
C3555      H3562   1.073       .  S
C3556      C3557   1.433       .  A
C3557      C3558   1.420       .  A
C3557      C3564   1.518       .  S
C3558      C3559   1.402       .  A
C3558      H3563   1.083       .  S
C3559      C3560   1.422       .  A
C3560      C3561   1.524       .  S
C3561      F3565   1.379       .  S
C3561      F3566   1.365       .  S
C3561      F3567   1.375       .  S
C3564      F3568   1.381       .  S
C3564      F3569   1.379       .  S
C3564      F3570   1.385       .  S
C3571      C3572   1.400       .  A
C3571      C4134   1.401       .  A
C3571      H3578   1.079       .  S
C3572      C3573   1.413       .  A
C3573      C4132   1.414       .  A
C3573      C3580   1.514       .  S
C3574      C4131   1.414   1_554  A
C3574      C3575   1.408       .  A
C3574      H3579   1.083       .  S
C3575      C3576   1.419       .  A
C3576      C4129   1.401   1_554  A
C3576      C3577   1.519       .  S
C3577      F3581   1.384       .  S
C3577      F3582   1.382       .  S
C3577      F3583   1.378       .  S
C3580      F3584   1.381       .  S
C3580      F3585   1.383       .  S
C3580      F4144   1.384       .  S
F3586      C4138   1.384   1_554  S
C3587      C4146   1.396   1_565  A
C3587      C3592   1.392   1_565  A
C3587      H3594   1.084       .  S
C3588      C4145   1.396   1_545  A
C3589      C3590   1.413       .  A
C3589      C3596   1.510       .  S
C3590      C4149   1.403   1_554  A
C3590      H3595   1.083       .  S
C3591      C4148   1.403       .  A
C3592      C3593   1.508   1_545  S
C3593      F3597   1.385       .  S
C3593      F3598   1.383       .  S
C3593      F3599   1.380       .  S
C3596      F3600   1.383       .  S
C3596      F3601   1.375       .  S
C3596      F3602   1.384       .  S
C3603      C3604   1.398       .  A
C3603      C3608   1.409       .  A
C3603      H3610   1.083       .  S
C3604      C3605   1.430       .  A
C3605      C3612   1.521       .  S
C3606      C3607   1.399       .  A
C3606      H3611   1.085       .  S
C3608      C3609   1.513       .  S
C3609      F3613   1.385       .  S
C3609      F3614   1.384       .  S
C3612      F3616   1.368       .  S
C3612      F3617   1.384       .  S
C3619      C3620   1.405       .  A
C3619      C3624   1.406       .  A
C3619      H3626   1.081       .  S
C3620      C3621   1.432       .  A
C3621      C3622   1.414       .  A
C3621      C3628   1.503       .  S
C3622      C3623   1.394       .  A
C3622      H3627   1.083       .  S
C3623      C3624   1.422       .  A
C3624      C3625   1.511       .  S
C3625      F3629   1.385       .  S
C3625      F3630   1.378       .  S
C3625      F3631   1.380       .  S
C3628      F3634   1.385       .  S
C3635      C3636   1.399       .  A
C3635      C3640   1.408       .  A
C3635      H3642   1.084       .  S
C3636      C3637   1.425       .  A
C3637      C3638   1.400       .  A
C3637      C3644   1.512       .  S
C3638      C3639   1.394       .  A
C3638      H3643   1.083       .  S
C3639      C3640   1.416       .  A
C3640      C3641   1.501       .  S
C3641      F3645   1.384       .  S
C3641      F3646   1.379       .  S
C3641      F3647   1.383       .  S
C3644      F3648   1.377       .  S
C3644      F3649   1.374       .  S
C3644      F3650   1.385       .  S
C3651      C3652   1.410       .  A
C3651      C3656   1.412       .  A
C3651      H3658   1.081       .  S
C3652      C3653   1.422       .  A
C3653      C3654   1.430       .  A
C3653      C3660   1.516       .  S
C3654      C3655   1.419       .  A
C3654      H3659   1.082       .  S
C3655      C3656   1.425       .  A
C3656      C3657   1.514       .  S
C3657      F3661   1.385       .  S
C3657      F3662   1.383       .  S
C3657      F3663   1.376       .  S
C3660      F3664   1.382       .  S
C3660      F3665   1.383       .  S
C3660      F3666   1.384       .  S
C3667      C3668   1.408       .  A
C3667      C3672   1.416       .  A
C3668      C3669   1.420       .  A
C3669      C3670   1.415       .  A
C3669      C3676   1.509       .  S
C3670      C3671   1.405       .  A
C3670      H3675   1.083       .  S
C3671      C3672   1.414       .  A
C3672      C3673   1.513       .  S
C3673      F3677   1.384       .  S
C3673      F3678   1.382       .  S
C3673      F3679   1.378       .  S
C3676      F3680   1.381       .  S
C3676      F3681   1.380       .  S
C3676      F3682   1.384       .  S
C3683      C4246   1.407       .  A
C3683      H3690   1.083       .  S
C3684      C4243   1.421       .  A
C3685      C4242   1.421   1_554  A
C3685      C3692   1.509       .  S
C3686      C3687   1.403       .  A
C3687      C3688   1.423       .  A
C3688      C4241   1.407   1_554  A
C3688      C4247   1.520       .  S
C3689      C4246   1.520       .  S
C3689      F3693   1.385       .  S
C3689      F4252   1.382       .  S
C3689      F4253   1.382       .  S
C3692      F3696   1.379       .  S
C3692      F4255   1.378   1_554  S
C3692      F3698   1.384       .  S
F3694      C4247   1.382       .  S
F3695      C4247   1.382       .  S
F3697      C4250   1.378       .  S
C3699      C3704   1.423       .  A
C3699      H3706   1.083       .  S
C3700      C3701   1.433       .  A
C3701      C3702   1.410       .  A
C3701      C3708   1.518       .  S
C3702      H3707   1.083       .  S
C3703      C3704   1.431       .  A
C3704      C3705   1.524       .  S
C3705      F3709   1.385       .  S
C3705      F3710   1.383       .  S
C3705      F3711   1.377       .  S
C3708      F3712   1.383       .  S
C3708      F3713   1.374       .  S
C3708      F3714   1.383       .  S
C3715      C4274   1.398   1_554  A
C3715      C3720   1.410       .  A
C3715      H3722   1.082       .  S
C3716      C4273   1.398       .  A
C3717      C3718   1.397       .  A
C3717      C3724   1.512       .  S
C3718      C4277   1.402       .  A
C3718      H3723   1.081       .  S
C3719      C4276   1.402       .  A
C3720      C3721   1.515       .  S
C3721      F3725   1.384       .  S
C3721      F3726   1.375       .  S
C3721      F3727   1.382       .  S
C3724      F3728   1.380       .  S
C3724      F3729   1.381       .  S
C3724      F3730   1.385       .  S
C3731      C3736   1.391       .  A
C3731      H3738   1.085       .  S
C3732      C3733   1.410       .  A
C3733      C3740   1.512       .  S
C3734      C3735   1.402       .  A
C3735      C3736   1.417       .  A
C3736      C3737   1.513       .  S
C3737      F3741   1.385       .  S
C3737      F3742   1.381       .  S
C3737      F3743   1.383       .  S
C3740      F3744   1.383       .  S
C3740      F3745   1.382       .  S
C3740      F3746   1.384       .  S
C3747      C3748   1.394       .  A
C3747      C3752   1.401       .  A
C3747      H3754   1.082       .  S
C3748      C3749   1.429       .  A
C3749      C3750   1.399       .  A
C3749      C3756   1.528       .  S
C3750      C3751   1.403       .  A
C3750      H3755   1.081       .  S
C3751      C3752   1.414       .  A
C3752      C3753   1.494       .  S
C3753      F3757   1.381       .  S
C3753      F3758   1.382       .  S
C3753      F3759   1.384       .  S
C3756      F3760   1.384       .  S
C3756      F3761   1.384       .  S
C3756      F3762   1.385       .  S
C3763      C3764   1.416       .  A
C3763      C3768   1.406       .  A
C3763      H3770   1.082       .  S
C3764      C3765   1.433       .  A
C3765      C3766   1.396       .  A
C3765      C3772   1.538       .  S
C3766      C3767   1.404       .  A
C3766      H3771   1.085       .  S
C3767      C3768   1.411       .  A
C3768      C3769   1.520       .  S
C3769      F3773   1.385       .  S
C3769      F3774   1.383       .  S
C3769      F3775   1.384       .  S
C3772      F3776   1.385       .  S
C3772      F3777   1.374       .  S
C3772      F3778   1.384       .  S
C3779      C3780   1.402       .  A
C3779      H3786   1.083       .  S
C3781      C3782   1.421       .  A
C3781      C3788   1.514       .  S
C3782      C4341   1.409       .  A
C3782      H3787   1.083       .  S
C3783      C4340   1.409       .  A
C3783      C3784   1.408       .  A
C3784      C3785   1.506       .  S
C3785      F3789   1.385       .  S
C3785      F3790   1.381       .  S
C3785      F3791   1.380       .  S
C3788      F3792   1.383       .  S
C3788      F3794   1.384       .  S
C3795      C3800   1.414       .  A
C3795      H3802   1.084       .  S
C3796      C3797   1.425       .  A
C3797      C3798   1.402       .  A
C3797      C3804   1.505       .  S
C3798      H3803   1.084       .  S
C3799      C3800   1.429       .  A
C3800      C3801   1.520       .  S
C3801      F3805   1.383       .  S
C3801      F3806   1.378       .  S
C3801      F3807   1.383       .  S
C3804      F3808   1.377       .  S
C3804      F3809   1.382       .  S
C3804      F3810   1.379       .  S
C3811      C3812   1.404       .  A
C3811      C3816   1.413       .  A
C3811      H3818   1.069       .  S
C3812      C3813   1.423       .  A
C3813      C3814   1.416       .  A
C3813      C3820   1.520       .  S
C3814      C3815   1.411       .  A
C3814      H3819   1.078       .  S
C3815      C3816   1.422       .  A
C3817      F3821   1.384       .  S
C3817      F3822   1.382       .  S
C3817      F3823   1.384       .  S
C3820      F3824   1.379       .  S
C3820      F3825   1.382       .  S
C3820      F3826   1.385       .  S
C3827      C3828   1.399       .  A
C3827      C3832   1.410       .  A
C3827      H3834   1.084       .  S
C3828      C3829   1.414       .  A
C3829      C3830   1.404       .  A
C3829      C3836   1.501       .  S
C3830      C3831   1.402       .  A
C3830      H3835   1.078       .  S
C3831      C3832   1.425       .  A
C3832      C3833   1.507       .  S
C3833      F3838   1.382   1_655  S
C3833      F3839   1.368       .  S
C3836      F3840   1.376       .  S
C3836      F3841   1.372       .  S
C3836      F3842   1.384       .  S
C3843      C3844   1.401       .  A
C3843      C3848   1.414       .  A
C3843      H3850   1.085       .  S
C3844      C3845   1.411       .  A
C3845      C3846   1.408       .  A
C3845      C3852   1.502       .  S
C3846      C3847   1.410       .  A
C3847      C3848   1.435       .  A
C3848      C3849   1.522       .  S
C3849      F3853   1.378       .  S
C3849      F3854   1.379       .  S
C3849      F3855   1.375       .  S
C3852      F3858   1.384   1_565  S
C3859      C3860   1.397       .  A
C3859      C3864   1.412       .  A
C3859      H3866   1.083       .  S
C3860      C3861   1.424       .  A
C3861      C3862   1.416       .  A
C3861      C3868   1.516       .  S
C3862      C3863   1.403       .  A
C3862      H3867   1.083       .  S
C3863      C3864   1.418       .  A
C3864      C3865   1.497       .  S
C3865      F3869   1.384       .  S
C3865      F3870   1.380       .  S
C3865      F3871   1.381       .  S
C3868      F3872   1.380       .  S
C3868      F3873   1.377       .  S
C3868      F3874   1.385       .  S
C3875      C3876   1.395       .  A
C3875      C4438   1.407   1_554  A
C3875      H3882   1.082       .  S
C3876      C3877   1.421       .  A
C3877      C4436   1.412   1_554  A
C3877      C3884   1.513       .  S
C3878      C4435   1.412       .  A
C3878      C3879   1.401       .  A
C3878      H3883   1.083       .  S
C3879      C3880   1.428       .  A
C3880      C4433   1.407       .  A
C3880      C3881   1.523       .  S
C3881      F3885   1.385       .  S
C3881      F3886   1.375       .  S
C3881      F3887   1.382       .  S
C3884      F3888   1.376       .  S
C3884      F3889   1.381       .  S
C3884      F3890   1.385       .  S
C3891      C3892   1.388       .  A
C3891      C3896   1.397       .  A
C3891      H3898   1.082       .  S
C3892      C3893   1.409       .  A
C3893      C3894   1.408       .  A
C3893      C3900   1.515       .  S
C3894      C3895   1.409       .  A
C3894      H3899   1.083       .  S
C3895      C3896   1.431       .  A
C3896      C3897   1.520       .  S
C3897      F3901   1.380       .  S
C3897      F3902   1.378       .  S
C3897      F3903   1.375       .  S
C3900      F3904   1.381       .  S
C3900      F3905   1.380       .  S
C3900      F3906   1.384       .  S
O3907      C3915   1.254       .  A
O3907     Co3927   2.015       .  S
O3908      C3916   1.257       .  A
O3908     Co3928   1.936       .  S
O3909      C3917   1.279       .  A
O3909     Co3929   2.037       .  S
O3910      C3918   1.246   1_655  A
O3910     Co3930   1.972       .  S
O3911      C3917   1.255       .  A
O3911     Co3928   1.957       .  S
O3912      C3918   1.259   1_655  A
O3912     Co3927   2.024       .  S
O3913      C3916   1.271       .  A
O3913     Co3930   2.038       .  S
O3914      C3915   1.249       .  A
O3914     Co3929   1.985       .  S
C3915      C4370   1.513       .  S
C3916      C4338   1.488       .  S
C3917      C4437   1.486       .  S
O3919      C3932   1.289       .  A
O3919     Co3927   2.052       .  S
O3920      C3933   1.268       .  A
O3920     Co3928   2.036       .  S
O3921      C3934   1.280       .  A
O3921     Co3929   1.924       .  S
O3922      C3935   1.261       .  A
O3922     Co3930   1.989       .  S
O3923      C3935   1.270       .  A
O3923     Co3928   2.024       .  S
O3924      C3934   1.286       .  A
O3924     Co3927   2.040       .  S
O3925      C3932   1.278       .  A
O3925     Co3930   1.917       .  S
O3926      C3933   1.259       .  A
O3926     Co3929   1.997       .  S
Co3927     O3931   2.232       .  S
Co3928     O3931   2.079       .  S
Co3929     O3931   1.997       .  S
Co3930     O3931   1.988       .  S
C3932      C4357   1.490       .  S
C3933      C4421   1.504       .  S
C3934      C4453   1.488       .  S
C3935      C4389   1.508       .  S
O3936      C3944   1.250       .  A
O3936     Co3956   1.960       .  S
O3937      C3945   1.268       .  A
O3937     Co3957   1.985       .  S
O3938      C3946   1.302       .  A
O3939      C3947   1.262       .  A
O3939     Co3959   2.004       .  S
O3940     Co3957   1.847       .  S
O3941      C3947   1.251       .  A
O3941     Co3956   1.943       .  S
O3942      C3945   1.280       .  A
O3942     Co3959   2.037       .  S
O3943      C3944   1.276       .  A
O3943     Co3958   2.074       .  S
C3944      C4258   1.511       .  S
C3946      C4306   1.477       .  S
C3947      C4293   1.461       .  S
O3948      C3961   1.277       .  A
O3948     Co3956   2.016       .  S
O3949      C3962   1.304       .  A
O3949     Co3957   2.119       .  S
O3950      C3963   1.264       .  A
O3950     Co3958   1.976       .  S
O3951      C3964   1.253       .  A
O3951     Co3959   1.987       .  S
O3952      C3964   1.251       .  A
O3952     Co3957   1.990       .  S
O3953      C3963   1.275       .  A
O3953     Co3956   2.036       .  S
O3954      C3961   1.254       .  A
O3954     Co3959   1.935       .  S
O3955      C3962   1.272       .  A
O3955     Co3958   1.891       .  S
Co3956     O3960   2.015       .  S
Co3957     O3960   1.977       .  S
Co3958     O3960   2.041       .  S
Co3959     O3960   2.069       .  S
C3961      C4322   1.485       .  S
C3962      C4242   1.500       .  S
C3963      C4386   1.491       .  S
C3964      C4274   1.482       .  S
O3965      C3973   1.289       .  A
O3965     Co3985   2.095       .  S
O3966      C3974   1.265       .  A
O3966     Co3986   2.016       .  S
O3967      C3975   1.267       .  A
O3967     Co3987   1.971       .  S
O3968      C3976   1.249       .  A
O3968     Co3988   1.946       .  S
O3969      C3975   1.288       .  A
O3969     Co3986   2.054       .  S
O3970      C3976   1.268       .  A
O3970     Co3985   2.036       .  S
O3971      C3974   1.258       .  A
O3971     Co3988   1.950       .  S
O3972      C3973   1.271       .  A
O3972     Co3987   1.946       .  S
C3974      C4146   1.477   1_565  S
C3976      C4341   1.478       .  S
O3977      C3990   1.264       .  A
O3977     Co3985   1.963       .  S
O3978      C3991   1.253       .  A
O3978     Co3986   1.959       .  S
O3979      C3992   1.286       .  A
O3979     Co3987   2.076       .  S
O3980      C3993   1.274       .  A
O3980     Co3988   2.039       .  S
O3981      C3993   1.270       .  A
O3981     Co3986   2.000       .  S
O3982      C3992   1.270       .  A
O3982     Co3985   1.923       .  S
O3983      C3990   1.281       .  A
O3983     Co3988   2.041       .  S
O3984      C3991   1.272       .  A
O3984     Co3987   2.024       .  S
Co3985     O3989   2.049       .  S
Co3986     O3989   2.055       .  S
Co3987     O3989   2.037       .  S
Co3988     O3989   2.027       .  S
C3990      C4194   1.482       .  S
C3991      C4165   1.501       .  S
C3992      C4354   1.506       .  S
C3993      C4213   1.530       .  S
O3994      C4002   1.269       .  A
O3994     Co4014   2.062       .  S
O3995      C4003   1.268       .  A
O3995     Co4015   2.026       .  S
O3996      C4004   1.247       .  A
O3996     Co4016   1.931       .  S
O3997      C4005   1.260       .  A
O3997     Co4017   1.862       .  S
O3998      C4004   1.276       .  A
O3998     Co4015   2.034       .  S
O3999      C4005   1.300       .  A
O3999     Co4014   2.110       .  S
O4000      C4003   1.268       .  A
O4000     Co4017   1.974       .  S
O4001      C4002   1.239       .  A
O4001     Co4016   1.927       .  S
C4002      C4114   1.488       .  S
C4004      C4162   1.483       .  S
C4005      C4309   1.490       .  S
O4006      C4019   1.272       .  A
O4006     Co4014   1.914       .  S
O4007      C4020   1.252       .  A
O4007     Co4015   1.923       .  S
O4008      C4021   1.278       .  A
O4008     Co4016   2.045       .  S
O4009      C4022   1.260       .  A
O4009     Co4017   2.005       .  S
O4010      C4022   1.252       .  A
O4010     Co4015   1.979       .  S
O4011      C4021   1.269       .  A
O4011     Co4014   1.981       .  S
O4012      C4019   1.293       .  A
O4012     Co4017   2.082       .  S
O4013      C4020   1.268       .  A
O4013     Co4016   2.015       .  S
Co4014     O4018   2.048       .  S
Co4015     O4018   2.047       .  S
Co4016     O4018   2.041       .  S
Co4017     O4018   1.996       .  S
C4019      C4130   1.480       .  S
C4020      C4325   1.480       .  S
C4021      C4418   1.493       .  S
C4022      C4149   1.472       .  S
O4023      C4031   1.268       .  A
O4023     Co4043   2.015       .  S
O4024      C4032   1.296       .  A
O4024     Co4044   2.055       .  S
O4025      C4033   1.281       .  A
O4025     Co4045   1.945       .  S
O4026      C4034   1.250       .  A
O4026     Co4046   1.980       .  S
O4027      C4033   1.290       .  A
O4027     Co4044   2.044       .  S
O4028      C4034   1.268       .  A
O4028     Co4043   2.066       .  S
O4029      C4032   1.279       .  A
O4029     Co4046   1.926       .  S
O4030      C4031   1.262       .  A
O4030     Co4045   1.992       .  S
C4032      C4133   1.483       .  S
C4033      C4245   1.499       .  S
C4034      C4181   1.495       .  S
O4035      C4048   1.245       .  A
O4035     Co4043   1.949       .  S
O4036      C4049   1.256       .  A
O4036     Co4044   2.004       .  S
O4037      C4050   1.279       .  A
O4037     Co4045   2.051       .  S
O4038      C4051   1.238       .  A
O4038     Co4046   1.948       .  S
O4039      C4051   1.253       .  A
O4039     Co4044   1.986       .  S
O4040      C4050   1.252       .  A
O4040     Co4043   1.969       .  S
O4041      C4048   1.274       .  A
O4041     Co4046   2.053       .  S
O4042      C4049   1.248       .  A
O4042     Co4045   1.957       .  S
Co4043     O4047   2.055       .  S
Co4044     O4047   2.230       .  S
Co4045     O4047   1.966       .  S
Co4046     O4047   1.949       .  S
C4048      C4117   1.487       .  S
C4049      C4197   1.481       .  S
C4050      C4261   1.509       .  S
C4051      C4098   1.478       .  S
O4052      C4060   1.256       .  A
O4052     Co4072   1.964       .  S
O4053      C4061   1.267       .  A
O4053     Co4073   1.964       .  S
O4054      C4062   1.307       .  A
O4054     Co4074   2.095       .  S
O4055      C4063   1.291       .  A
O4055     Co4075   2.077       .  S
O4056      C4062   1.270       .  A
O4056     Co4073   1.929       .  S
O4057      C4063   1.254       .  A
O4057     Co4072   1.932       .  S
O4058      C4061   1.268       .  A
O4058     Co4075   2.008       .  S
O4059      C4060   1.287       .  A
O4059     Co4074   2.052       .  S
C4060      C4229   1.489       .  S
C4061      C4277   1.492       .  S
C4062      C4434   1.486       .  S
O4064      C4077   1.254       .  A
O4064     Co4072   1.983       .  S
O4065      C4078   1.285       .  A
O4065     Co4073   2.076       .  S
O4066      C4079   1.261       .  A
O4066     Co4074   1.997       .  S
O4067      C4080   1.257       .  A
O4067     Co4075   1.970       .  S
O4068      C4080   1.274       .  A
O4068     Co4073   2.058       .  S
O4069      C4079   1.253       .  A
O4069     Co4072   1.969       .  S
O4070      C4077   1.244       .  A
O4070     Co4075   1.961       .  S
O4071      C4078   1.262       .  A
O4071     Co4074   1.897       .  S
Co4072     O4076   2.049       .  S
Co4073     O4076   2.029       .  S
Co4074     O4076   2.015       .  S
Co4075     O4076   2.026       .  S
C4077      C4290   1.451       .  S
C4078      C4101   1.463       .  S
C4079      C4450   1.459       .  S
C4080      C4210   1.525       .  S
C4081      C4082   1.397       .  A
C4081      C4086   1.405       .  A
C4081      H4088   1.076       .  S
C4082      C4083   1.436       .  A
C4083      C4084   1.411       .  A
C4083      C4090   1.524       .  S
C4084      C4085   1.397       .  A
C4085      C4086   1.419       .  A
C4086      C4087   1.505       .  S
C4087      F4091   1.385       .  S
C4087      F4092   1.373       .  S
C4087      F4093   1.378       .  S
C4097      C4098   1.403       .  A
C4097      C4102   1.393       .  A
C4097      H4104   1.075       .  S
C4098      C4099   1.422       .  A
C4099      C4100   1.403       .  A
C4099      C4106   1.521       .  S
C4100      C4101   1.402       .  A
C4100      H4105   1.082       .  S
C4101      C4102   1.410       .  A
C4102      C4103   1.519       .  S
C4103      F4107   1.384       .  S
C4103      F4108   1.375       .  S
C4103      F4109   1.378       .  S
C4106      F4110   1.383       .  S
C4106      F4111   1.383       .  S
C4106      F4112   1.385       .  S
C4113      C4114   1.388       .  A
C4113      C4118   1.396       .  A
C4113      H4120   1.073       .  S
C4114      C4115   1.433       .  A
C4115      C4116   1.420       .  A
C4115      C4122   1.518       .  S
C4116      C4117   1.402       .  A
C4116      H4121   1.083       .  S
C4117      C4118   1.422       .  A
C4118      C4119   1.524       .  S
C4119      F4123   1.379       .  S
C4119      F4124   1.365       .  S
C4119      F4125   1.375       .  S
C4122      F4126   1.381       .  S
C4122      F4127   1.379       .  S
C4122      F4128   1.385       .  S
C4129      C4130   1.400       .  A
C4129      H4136   1.079       .  S
C4130      C4131   1.413       .  A
C4131      C4138   1.514       .  S
C4132      C4133   1.408       .  A
C4132      H4137   1.083       .  S
C4133      C4134   1.419       .  A
C4134      C4135   1.519       .  S
C4135      F4139   1.384       .  S
C4135      F4140   1.382       .  S
C4135      F4141   1.378       .  S
C4138      F4142   1.381       .  S
C4138      F4143   1.383       .  S
C4145      C4150   1.392   1_564  A
C4145      H4152   1.084       .  S
C4147      C4148   1.413       .  A
C4147      C4154   1.510       .  S
C4148      H4153   1.083       .  S
C4150      C4151   1.508   1_545  S
C4151      F4155   1.385       .  S
C4151      F4156   1.383       .  S
C4151      F4157   1.380       .  S
C4154      F4158   1.383       .  S
C4154      F4159   1.375       .  S
C4154      F4160   1.384       .  S
C4161      C4162   1.398       .  A
C4161      C4166   1.409       .  A
C4161      H4168   1.083       .  S
C4162      C4163   1.430       .  A
C4163      C4170   1.521       .  S
C4164      C4165   1.399       .  A
C4164      H4169   1.085       .  S
C4166      C4167   1.513       .  S
C4167      F4171   1.385       .  S
C4167      F4172   1.384       .  S
C4170      F4174   1.368       .  S
C4170      F4175   1.384       .  S
C4177      C4178   1.405       .  A
C4177      C4182   1.406       .  A
C4177      H4184   1.081       .  S
C4178      C4179   1.432       .  A
C4179      C4180   1.414       .  A
C4179      C4186   1.503       .  S
C4180      C4181   1.394       .  A
C4180      H4185   1.083       .  S
C4181      C4182   1.422       .  A
C4182      C4183   1.511       .  S
C4183      F4187   1.385       .  S
C4183      F4188   1.378       .  S
C4183      F4189   1.380       .  S
C4186      F4192   1.385       .  S
C4193      C4194   1.399       .  A
C4193      C4198   1.408       .  A
C4193      H4200   1.084       .  S
C4194      C4195   1.425       .  A
C4195      C4196   1.400       .  A
C4195      C4202   1.512       .  S
C4196      C4197   1.394       .  A
C4196      H4201   1.083       .  S
C4197      C4198   1.416       .  A
C4198      C4199   1.501       .  S
C4199      F4203   1.384       .  S
C4199      F4204   1.379       .  S
C4199      F4205   1.383       .  S
C4202      F4206   1.377       .  S
C4202      F4207   1.374       .  S
C4202      F4208   1.385       .  S
C4209      C4210   1.410       .  A
C4209      C4214   1.412       .  A
C4209      H4216   1.081       .  S
C4210      C4211   1.422       .  A
C4211      C4212   1.430       .  A
C4211      C4218   1.516       .  S
C4212      C4213   1.419       .  A
C4212      H4217   1.082       .  S
C4213      C4214   1.425       .  A
C4214      C4215   1.514       .  S
C4215      F4219   1.385       .  S
C4215      F4220   1.383       .  S
C4215      F4221   1.376       .  S
C4218      F4222   1.382       .  S
C4218      F4223   1.383       .  S
C4218      F4224   1.384       .  S
C4225      C4226   1.408       .  A
C4225      C4230   1.416       .  A
C4226      C4227   1.420       .  A
C4227      C4228   1.415       .  A
C4227      C4234   1.509       .  S
C4228      C4229   1.405       .  A
C4228      H4233   1.083       .  S
C4229      C4230   1.414       .  A
C4230      C4231   1.513       .  S
C4231      F4235   1.384       .  S
C4231      F4236   1.382       .  S
C4231      F4237   1.378       .  S
C4234      F4238   1.381       .  S
C4234      F4239   1.380       .  S
C4234      F4240   1.384       .  S
C4241      H4248   1.083       .  S
C4243      C4250   1.509       .  S
C4244      C4245   1.403       .  A
C4245      C4246   1.423       .  A
C4247      F4251   1.385   1_554  S
C4250      F4254   1.379       .  S
C4250      F4256   1.384       .  S
C4257      C4262   1.423       .  A
C4257      H4264   1.083       .  S
C4258      C4259   1.433       .  A
C4259      C4260   1.410       .  A
C4259      C4266   1.518       .  S
C4260      H4265   1.083       .  S
C4261      C4262   1.431       .  A
C4262      C4263   1.524       .  S
C4263      F4267   1.385       .  S
C4263      F4268   1.383       .  S
C4263      F4269   1.377       .  S
C4266      F4270   1.383       .  S
C4266      F4271   1.374       .  S
C4266      F4272   1.383       .  S
C4273      C4278   1.410       .  A
C4273      H4280   1.082       .  S
C4275      C4276   1.397   1_556  A
C4275      C4282   1.512       .  S
C4276      H4281   1.081       .  S
C4278      C4279   1.515       .  S
C4279      F4283   1.384       .  S
C4279      F4284   1.375       .  S
C4279      F4285   1.382       .  S
C4282      F4286   1.380       .  S
C4282      F4287   1.381       .  S
C4282      F4288   1.385       .  S
C4289      C4294   1.391       .  A
C4289      H4296   1.085       .  S
C4290      C4291   1.410       .  A
C4291      C4298   1.512       .  S
C4292      C4293   1.402       .  A
C4293      C4294   1.417       .  A
C4294      C4295   1.513       .  S
C4295      F4299   1.385       .  S
C4295      F4300   1.381       .  S
C4295      F4301   1.383       .  S
C4298      F4302   1.383       .  S
C4298      F4303   1.382       .  S
C4298      F4304   1.384       .  S
C4305      C4306   1.394       .  A
C4305      C4310   1.401       .  A
C4305      H4312   1.082       .  S
C4306      C4307   1.429       .  A
C4307      C4308   1.399       .  A
C4307      C4314   1.528       .  S
C4308      C4309   1.403       .  A
C4308      H4313   1.081       .  S
C4309      C4310   1.414       .  A
C4310      C4311   1.494       .  S
C4311      F4315   1.381       .  S
C4311      F4316   1.382       .  S
C4311      F4317   1.384       .  S
C4314      F4318   1.384       .  S
C4314      F4319   1.384       .  S
C4314      F4320   1.385       .  S
C4321      C4322   1.416       .  A
C4321      C4326   1.406       .  A
C4321      H4328   1.082       .  S
C4322      C4323   1.433       .  A
C4323      C4324   1.396       .  A
C4323      C4330   1.538       .  S
C4324      C4325   1.404       .  A
C4324      H4329   1.085       .  S
C4325      C4326   1.411       .  A
C4326      C4327   1.520       .  S
C4327      F4331   1.385       .  S
C4327      F4332   1.383       .  S
C4327      F4333   1.384       .  S
C4330      F4334   1.385       .  S
C4330      F4335   1.374       .  S
C4330      F4336   1.384       .  S
C4337      C4338   1.402       .  A
C4337      H4344   1.083       .  S
C4339      C4340   1.421   1_556  A
C4339      C4346   1.514       .  S
C4340      H4345   1.083       .  S
C4341      C4342   1.408       .  A
C4342      C4343   1.506       .  S
C4343      F4347   1.385       .  S
C4343      F4348   1.381       .  S
C4343      F4349   1.380       .  S
C4346      F4350   1.383       .  S
C4346      F4352   1.384       .  S
C4353      C4358   1.414       .  A
C4353      H4360   1.084       .  S
C4354      C4355   1.425       .  A
C4355      C4356   1.402       .  A
C4355      C4362   1.505       .  S
C4356      H4361   1.084       .  S
C4357      C4358   1.429       .  A
C4358      C4359   1.520       .  S
C4359      F4363   1.383       .  S
C4359      F4364   1.378       .  S
C4359      F4365   1.383       .  S
C4362      F4366   1.377       .  S
C4362      F4367   1.382       .  S
C4362      F4368   1.379       .  S
C4369      C4370   1.404       .  A
C4369      C4374   1.413       .  A
C4369      H4376   1.069       .  S
C4370      C4371   1.423       .  A
C4371      C4372   1.416       .  A
C4371      C4378   1.520       .  S
C4372      C4373   1.411       .  A
C4372      H4377   1.078       .  S
C4373      C4374   1.422       .  A
C4375      F4379   1.384       .  S
C4375      F4380   1.382       .  S
C4375      F4381   1.384       .  S
C4378      F4382   1.379       .  S
C4378      F4383   1.382       .  S
C4378      F4384   1.385       .  S
C4385      C4386   1.399       .  A
C4385      C4390   1.410       .  A
C4385      H4392   1.084       .  S
C4386      C4387   1.414       .  A
C4387      C4388   1.404       .  A
C4387      C4394   1.501       .  S
C4388      C4389   1.402       .  A
C4388      H4393   1.078       .  S
C4389      C4390   1.425       .  A
C4390      C4391   1.507       .  S
C4391      F4396   1.382   1_655  S
C4391      F4397   1.368       .  S
C4394      F4398   1.376       .  S
C4394      F4399   1.372       .  S
C4394      F4400   1.384       .  S
C4401      C4402   1.401       .  A
C4401      C4406   1.414       .  A
C4401      H4408   1.085       .  S
C4402      C4403   1.411       .  A
C4403      C4404   1.408       .  A
C4403      C4410   1.502       .  S
C4404      C4405   1.410       .  A
C4405      C4406   1.435       .  A
C4406      C4407   1.522       .  S
C4407      F4411   1.378       .  S
C4407      F4412   1.379       .  S
C4407      F4413   1.375       .  S
C4410      F4416   1.384   1_565  S
C4417      C4418   1.397       .  A
C4417      C4422   1.412       .  A
C4417      H4424   1.083       .  S
C4418      C4419   1.424       .  A
C4419      C4420   1.416       .  A
C4419      C4426   1.516       .  S
C4420      C4421   1.403       .  A
C4420      H4425   1.083       .  S
C4421      C4422   1.418       .  A
C4422      C4423   1.497       .  S
C4423      F4427   1.384       .  S
C4423      F4428   1.380       .  S
C4423      F4429   1.381       .  S
C4426      F4430   1.380       .  S
C4426      F4431   1.377       .  S
C4426      F4432   1.385       .  S
C4433      C4434   1.395       .  A
C4433      H4440   1.082       .  S
C4434      C4435   1.421       .  A
C4435      C4442   1.513       .  S
C4436      C4437   1.401       .  A
C4436      H4441   1.083       .  S
C4437      C4438   1.428       .  A
C4438      C4439   1.523       .  S
C4439      F4443   1.385       .  S
C4439      F4444   1.375       .  S
C4439      F4445   1.382       .  S
C4442      F4446   1.376       .  S
C4442      F4447   1.381       .  S
C4442      F4448   1.385       .  S
C4449      C4450   1.388       .  A
C4449      C4454   1.397       .  A
C4449      H4456   1.082       .  S
C4450      C4451   1.409       .  A
C4451      C4452   1.408       .  A
C4451      C4458   1.515       .  S
C4452      C4453   1.409       .  A
C4452      H4457   1.083       .  S
C4453      C4454   1.431       .  A
C4454      C4455   1.520       .  S
C4455      F4459   1.380       .  S
C4455      F4460   1.378       .  S
C4455      F4461   1.375       .  S
C4458      F4462   1.381       .  S
C4458      F4463   1.380       .  S
C4458      F4464   1.384       .  S
