geometry optimzed in LAMMPS
_audit_creation_date              2020-11-30 
_audit_creation_method            'lammps2cif' 
_symmetry_space_group_name_H-M    'P1' 
_symmetry_Int_Tables_number       1 
_symmetry_cell_setting            triclinic 
loop_ 
_symmetry_equiv_pos_as_xyz 
  x,y,z 
_cell_length_a                    43.26218807 
_cell_length_b                    42.44707678751785 
_cell_length_c                    42.41308750279135 
_cell_angle_alpha                 88.59601992629221 
_cell_angle_beta                  89.03313630577343 
_cell_angle_gamma                 91.21702853526733 
loop_ 
_atom_site_label 
_atom_site_type_symbol 
_atom_site_fract_x 
_atom_site_fract_y 
_atom_site_fract_z 
_atom_site_charge 
C1          C  0.24772793  0.16341092  0.04764092     0.43400
N2          N  0.24032533  0.20139306  0.01423738     0.02300
C3          C  0.34641455  0.29442755  0.44140684    -0.05600
H4          H  0.34401564  0.30873090  0.06567688     0.07800
C5          C  0.23037749  0.34222074  0.05405045    -0.05900
Co6        Co  0.28945509  0.22761548  0.48839615     0.74200
N7          N  0.32281141  0.28010278  0.02998139    -0.25100
Co8        Co  0.30270554  0.31039297  0.99709435     0.74100
C9          C  0.25495133  0.34856080  0.07595460     0.43500
N10         N  0.19356794  0.28204061  0.02122222     0.01900
N11         N  0.27428476  0.32963922  0.03328177     0.02000
N12         N  0.33608637  0.24292012  0.43596486    -0.46000
H13         H  0.30065761  0.17022787  0.04343723     0.07800
N14         N  0.32108145  0.24938055  0.02600277     0.02300
N15         N  0.27721089  0.33767912  0.45963833     0.02000
C16         C  0.26808938  0.36669323  0.41809112     0.43600
N17         N  0.19322646  0.25152398  0.01616649    -0.24600
C18         C  0.27696149  0.18743476  0.42800737    -0.05500
N19         N  0.22589072  0.17910525  0.03157592    -0.45700
N20         N  0.29075974  0.35218011  0.43452895    -0.45900
C21         C  0.24927793  0.17839922  0.41043683     0.43400
N22         N  0.31776747  0.25480559  0.45754038     0.02300
N23         N  0.19457710  0.26401617  0.44614857    -0.24600
N24         N  0.27064260  0.20081864  0.01704581    -0.25100
N25         N  0.19369280  0.29458614  0.45001837     0.01900
H26         H  0.17416271  0.23318654  0.41282438     0.07800
H27         H  0.21576230  0.36193625  0.42869031     0.07800
N28         N  0.32274804  0.28524621  0.46096983    -0.25100
N29         N  0.24407317  0.32992875  0.02924588    -0.24700
N30         N  0.23723776  0.21120385  0.44651797     0.02300
C31         C  0.34695465  0.25453634  0.06877869     0.43700
C32         C  0.17458398  0.23702572  0.03762186    -0.06000
N33         N  0.24686343  0.34001753  0.45938320    -0.24700
H34         H  0.20570172  0.34480599  0.05697582     0.07800
N35         N  0.33500232  0.23341605  0.04864657    -0.46000
H36         H  0.17019946  0.21186308  0.03919159     0.07800
C37         C  0.16520439  0.28615844  0.40899209     0.43500
C38         C  0.27759600  0.17770989  0.03786466    -0.05500
Co39       Co  0.21112060  0.23336153  0.48045913     0.73800
N40         N  0.17636321  0.28926567  0.04635441    -0.45700
C41         C  0.35541828  0.26604468  0.42442815     0.43800
N42         N  0.22577171  0.19407358  0.42374694    -0.45700
Co43       Co  0.22158343  0.31169001  0.99136862     0.73900
C44         C  0.23927885  0.35853998  0.43534864    -0.06000
C45         C  0.33886650  0.28575950  0.05635683    -0.05600
N46         N  0.26713431  0.20763400  0.44988981    -0.25100
N47         N  0.28191790  0.34018125  0.06167977    -0.45900
H48         H  0.35706935  0.31769863  0.44025502     0.07800
C49         C  0.17950084  0.25695094  0.41999187    -0.06000
Cl50       Cl  0.26078494  0.27064718  0.98924907    -0.49000
C51         C  0.16343078  0.26184759  0.05803948     0.43500
H52         H  0.29994369  0.17798217  0.42648814     0.07800
N53         N  0.17559445  0.30849852  0.42903316    -0.45700
C54         C  0.14962637  0.25628831  0.09039198     0.04100
C55         C  0.12861277  0.27708306  0.10510362    -0.12100
C56         C  0.11610099  0.26912037  0.13568859     0.01600
C57         C  0.12841252  0.24293843  0.15167154    -0.10600
C58         C  0.13845176  0.21829326  0.13332135     0.04100
C59         C  0.15357760  0.22634915  0.10487174    -0.10000
H60         H  0.11970804  0.29676287  0.09166617     0.09700
H61         H  0.11874958  0.23636315  0.17476497     0.07200
H62         H  0.16434084  0.20760866  0.09215468     0.07000
C63         C  0.36199571  0.24516422  0.09888266     0.04100
C64         C  0.35887774  0.21326468  0.10860979    -0.12100
C65         C  0.37426009  0.20192669  0.13502463     0.01600
C66         C  0.38689818  0.22363823  0.15551341    -0.10600
C67         C  0.39678658  0.25336679  0.14344863     0.04100
C68         C  0.38273643  0.26508357  0.11554804    -0.10000
H69         H  0.34800809  0.19627815  0.09341178     0.09700
H70         H  0.39796447  0.21411780  0.17635262     0.07200
H71         H  0.38982434  0.28785593  0.10552694     0.07000
C72         C  0.09307398  0.26760005  0.36273756     0.04100
C73         C  0.12099520  0.28366181  0.36995989    -0.12100
C74         C  0.13200382  0.28283646  0.40129034     0.01600
C75         C  0.11410937  0.26703468  0.42476721    -0.10600
C76         C  0.09057408  0.24638630  0.41629079     0.04100
C77         C  0.07901265  0.24771199  0.38587329    -0.10000
H78         H  0.13481254  0.29438188  0.35106076     0.09700
H79         H  0.12293813  0.26500982  0.44854315     0.07200
H80         H  0.06001872  0.23199644  0.37994277     0.07000
C81         C  0.42812770  0.24625747  0.37709451     0.04100
C82         C  0.43607077  0.21951845  0.39569638    -0.12100
C83         C  0.42106759  0.21275563  0.42469123     0.01600
C84         C  0.39886353  0.23299113  0.43561105    -0.10600
C85         C  0.38738991  0.25692507  0.41619695     0.04100
C86         C  0.40276406  0.26452092  0.38712107    -0.10000
H87         H  0.45388324  0.20384656  0.38780381     0.09700
H88         H  0.38736018  0.22724605  0.45804223     0.07200
H89         H  0.39395417  0.28281818  0.37169345     0.07000
N90         N  0.50579825  0.10283001  0.49883667    -0.35700
N91         N  0.05287255  0.11500474  0.04850674    -0.56200
N92         N  0.50726257  0.09806150  0.09719536    -0.35700
N93         N  0.45796913  0.09190278  0.04893438    -0.56200
C94         C  0.04004679  0.12121033  0.48115716     0.27900
C95         C  0.48034807  0.10365494  0.48079592     0.27900
C96         C  0.02903240  0.10525351  0.11538277     0.27900
C97         C  0.48141099  0.09582280  0.11584322     0.27900
C98         C  0.07743346  0.13185637  0.52377842     0.36500
C99         C  0.07073240  0.11672463  0.07422027     0.36500
C100        C  0.44063161  0.08866641  0.52212835     0.36500
C101        C  0.43946172  0.09197635  0.07476842     0.36500
C102        C  0.03185692  0.12254747  0.44972458    -0.20900
C103        C  0.48836147  0.11622074  0.45120726    -0.20900
C104        C  0.01601972  0.11105059  0.14475413    -0.20900
C105        C  0.48965728  0.09980996  0.14698033    -0.20900
C106        C  0.10381165  0.14664991  0.53438158    -0.22000
C107        C  0.09966737  0.12950730  0.06543643    -0.22000
C108        C  0.41028817  0.08247795  0.53137874    -0.22000
C109        C  0.40899841  0.09668176  0.06554542    -0.22000
C110        C  0.06689505  0.13565741  0.49276421    -0.17400
C111        C  0.44934562  0.10111273  0.49211374    -0.17400
C112        C  0.45019187  0.09788256  0.10563965    -0.17300
C113        C  0.05918695  0.11605913  0.10586440    -0.17300
H114        H  0.04537657  0.13209655  0.42997541     0.15600
H115        H  0.47344936  0.12154464  0.43183782     0.15600
H116        H  0.02717778  0.12183144  0.16457731     0.15600
H117        H  0.47415378  0.10074466  0.16723568     0.15600
H118        H  0.12073469  0.16060927  0.52073332     0.13800
H119        H  0.11841786  0.13605598  0.08056546     0.13800
H120        H  0.39026501  0.08203299  0.51641540     0.13800
H121        H  0.38872050  0.09912265  0.08040306     0.13800
H122        H  0.50660061  0.09600513  0.52232513     0.27100
H123        H  0.50760964  0.09772122  0.07286049     0.27100
C124        C  0.07910095  0.16931422  0.23621854     0.43400
N125        N  0.04523175  0.20449333  0.24703910     0.02300
C126        C  0.44160566  0.29316026  0.16507915    -0.05600
H127        H  0.07277666  0.32620538  0.15402373     0.07800
C128        C  0.06299642  0.34883773  0.26076709    -0.05900
Co129      Co  0.50779039  0.22991872  0.19740147     0.74200
N130        N  0.03964232  0.28970487  0.16952767    -0.25100
Co131      Co  0.50269416  0.31190933  0.20279108     0.74100
C132        C  0.07422060  0.36789658  0.23347559     0.43500
N133        N  0.04273421  0.28091243  0.29959773     0.01900
N134        N  0.03669678  0.33675202  0.22005199     0.02000
N135        N  0.44890385  0.24105145  0.16200197    -0.46000
H136        H  0.06702247  0.17292670  0.18337634     0.07800
N137        N  0.04059707  0.25866588  0.16870641     0.02300
N138        N  0.46818642  0.33089183  0.23292047     0.02000
C139        C  0.42849584  0.35358133  0.25361644     0.43600
N140        N  0.04378891  0.25005481  0.29788863    -0.24600
C141        C  0.45356285  0.18254366  0.21290988    -0.05500
N142        N  0.06532312  0.18513034  0.25950770    -0.45700
N143        N  0.44247103  0.34638065  0.22573095    -0.45900
C144        C  0.44107781  0.16718037  0.24161314     0.43400
N145        N  0.47202557  0.25477426  0.17655076     0.02300
N146        N  0.47864011  0.24279061  0.30759886    -0.24600
N147        N  0.04435405  0.20352723  0.21606659    -0.25100
N148        N  0.47642422  0.27340700  0.31128655     0.01900
H149        H  0.45796503  0.20218502  0.33147229     0.07800
H150        H  0.44540156  0.34212612  0.30381521     0.07800
N151        N  0.46871443  0.28547275  0.17881333    -0.25100
N152        N  0.03916701  0.33174328  0.25066894    -0.24700
N153        N  0.47787514  0.19931707  0.25372809     0.02300
C154        C  0.08293495  0.27398533  0.14449244     0.43700
C155        C  0.06646336  0.23981335  0.31637289    -0.06000
N156        N  0.47152400  0.32737170  0.26375573    -0.24700
H157        H  0.06914281  0.35107362  0.28524931     0.07800
N158        N  0.06548921  0.24879134  0.15427186    -0.46000
H159        H  0.07142009  0.21532955  0.32131565     0.07800
C160        C  0.44465539  0.25198892  0.34610202     0.43500
C161        C  0.06477290  0.18152508  0.20694735    -0.05500
Co162      Co  0.51206752  0.22362949  0.27857412     0.73800
N163        N  0.06314441  0.29247049  0.31958919    -0.45700
C164        C  0.42841942  0.26320332  0.15378692     0.43800
N165        N  0.45759117  0.17848276  0.26584385    -0.45700
Co166      Co  0.50789839  0.30355287  0.28509849     0.73900
C167        C  0.44817246  0.34114486  0.27847291    -0.06000
C168        C  0.06582605  0.30161307  0.15514371    -0.05600
N169        N  0.47622214  0.20180200  0.22276296    -0.25100
N170        N  0.05638608  0.35905666  0.20905745    -0.45900
H171        H  0.43192291  0.31642993  0.16403434     0.07800
C172        C  0.45951584  0.22751399  0.32808370    -0.06000
Cl173      Cl  0.50750788  0.26727942  0.24100862    -0.49000
C174        C  0.07966293  0.26797808  0.33082118     0.43500
H175        H  0.44793719  0.17833452  0.18859369     0.07800
N176        N  0.45665463  0.28002553  0.33462223    -0.45700
C177        C  0.24818969  0.35588620  0.10953874     0.04100
C178        C  0.21970212  0.34329675  0.12135253    -0.12100
C179        C  0.19928368  0.36339631  0.13617368     0.01600
C180        C  0.21213668  0.38786654  0.15328840    -0.10600
C181        C  0.24248204  0.39911131  0.14627016     0.04100
C182        C  0.26045771  0.38334872  0.12346705    -0.10000
H183        H  0.20949353  0.32309610  0.10990043     0.09700
H184        H  0.19640398  0.40219473  0.16664247     0.07200
H185        H  0.28140517  0.39450827  0.11382565     0.07000
C186        C  0.24214414  0.13189994  0.06269019     0.04100
C187        C  0.21721816  0.11309349  0.05236324    -0.12100
C188        C  0.21260047  0.08244698  0.06459851     0.01600
C189        C  0.23295375  0.07033264  0.08633149    -0.10600
C190        C  0.25430723  0.09008385  0.10081351     0.04100
C191        C  0.26008633  0.12072259  0.08810388    -0.10000
H192        H  0.20135665  0.12215907  0.03501794     0.09700
H193        H  0.22844230  0.04671338  0.09601703     0.07200
H194        H  0.27674745  0.13624920  0.09899495     0.07000
C195        C  0.24349776  0.14741426  0.39611311     0.04100
C196        C  0.21773945  0.12944894  0.40750164    -0.12100
C197        C  0.21133167  0.09968493  0.39585840     0.01600
C198        C  0.23155298  0.08704414  0.37404304    -0.10600
C199        C  0.25465986  0.10592288  0.35880693     0.04100
C200        C  0.26148247  0.13605775  0.37072872    -0.10000
H201        H  0.20239573  0.13862059  0.42537163     0.09700
H202        H  0.22648863  0.06353128  0.36575306     0.07200
H203        H  0.27908130  0.15110269  0.35933944     0.07000
C204        C  0.26129681  0.41406591  0.34194138     0.04100
C205        C  0.23621461  0.39611421  0.33070739    -0.12100
C206        C  0.22368385  0.37190025  0.34973439     0.01600
C207        C  0.24457942  0.35516214  0.36788224    -0.10600
C208        C  0.26767194  0.37270701  0.38314999     0.04100
C209        C  0.27717884  0.40232681  0.36898292    -0.10000
H210        H  0.22142928  0.40595619  0.31279480     0.09700
H211        H  0.23575643  0.33358929  0.37935581     0.07200
H212        H  0.29277893  0.41782091  0.38134160     0.07000
N213        N  0.10112513  0.00648045  0.98911918    -0.35700
N214        N  0.10412360  0.45853475  0.43537185    -0.56200
N215        N  0.10317403  0.40725590  0.99169163    -0.35700
N216        N  0.08816829  0.45212358  0.04101361    -0.56200
C217        C  0.09207202  0.02060951  0.45804823     0.27900
C218        C  0.09628917  0.02356123  0.01494567     0.27900
C219        C  0.11509846  0.39204927  0.46045827     0.27900
C220        C  0.10736195  0.38906685  0.01815249     0.27900
C221        C  0.11142318  0.98498585  0.41795907     0.36500
C222        C  0.11327141  0.43469264  0.41742946     0.36500
C223        C  0.09374224  0.98118099  0.05600433     0.36500
C224        C  0.08977349  0.42638305  0.06001017     0.36500
C225        C  0.08052674  0.04941054  0.46664854    -0.20900
C226        C  0.09825340  0.05527377  0.00671279    -0.20900
C227        C  0.12708864  0.36397607  0.47168520    -0.20900
C228        C  0.12215394  0.36170696  0.00986670    -0.20900
C229        C  0.12563029  0.97789820  0.38965716    -0.22000
C230        C  0.12324055  0.44671487  0.38797748    -0.22000
C231        C  0.09469959  0.97128021  0.08716196    -0.22000
C232        C  0.08840402  0.43538655  0.09140865    -0.22000
C233        C  0.10925725  0.01551017  0.43038394    -0.17400
C234        C  0.10150359  0.01208163  0.04569859    -0.17400
C235        C  0.10283912  0.39781572  0.05024155    -0.17300
C236        C  0.12075418  0.40408766  0.42910514    -0.17300
H237        H  0.08008152  0.07077595  0.45230155     0.15600
H238        H  0.09904031  0.07436257  0.02284296     0.15600
H239        H  0.13969901  0.34692666  0.45841374     0.15600
H240        H  0.12933446  0.34282172  0.02554828     0.15600
H241        H  0.13732413  0.99321225  0.37251554     0.13800
H242        H  0.13321563  0.43394048  0.36866927     0.13800
H243        H  0.09765653  0.98587295  0.10752279     0.13800
H244        H  0.09095352  0.42049249  0.11223026     0.13800
H245        H  0.10527042  0.98268663  0.98928346     0.27100
H246        H  0.09335101  0.42929639  0.99054938     0.27100
C247        C  0.08358371  0.40096461  0.23891675     0.04100
C248        C  0.11411353  0.41254838  0.23330073    -0.12100
C249        C  0.12602596  0.43712395  0.25193266     0.01600
C250        C  0.10801452  0.44764854  0.27728496    -0.10600
C251        C  0.07772223  0.43642732  0.28197476     0.04100
C252        C  0.06462985  0.41627244  0.26046564    -0.10000
H253        H  0.12906329  0.40109885  0.21656125     0.09700
H254        H  0.11777038  0.46365087  0.29418398     0.07200
H255        H  0.04135377  0.40710493  0.26532407     0.07000
C256        C  0.38867856  0.09697842  0.22392336     0.04100
C257        C  0.40322218  0.07433294  0.24268379    -0.12100
C258        C  0.41931591  0.08485400  0.26847059     0.01600
C259        C  0.43240471  0.11510741  0.26755789    -0.10600
C260        C  0.42492778  0.13636172  0.24324410     0.04100
C261        C  0.40097036  0.12805897  0.22258379    -0.10000
H262        H  0.39344013  0.05053865  0.24402806     0.09700
H263        H  0.44663452  0.12251350  0.28694194     0.07200
H264        H  0.39061836  0.14593761  0.20777460     0.07000
C265        C  0.09095016  0.13717993  0.24380175     0.04100
C266        C  0.07622495  0.12084939  0.26942383    -0.12100
C267        C  0.08858242  0.09376825  0.28283720     0.01600
C268        C  0.11517491  0.08131449  0.26956481    -0.10600
C269        C  0.13092852  0.09671754  0.24396699     0.04100
C270        C  0.11864132  0.12492395  0.23099662    -0.10000
H271        H  0.05550577  0.13005433  0.28023298     0.09700
H272        H  0.12460044  0.06033728  0.28051768     0.07200
H273        H  0.13160443  0.13830344  0.21312302     0.07000
C274        C  0.35759702  0.40804114  0.25385863     0.04100
C275        C  0.38442577  0.39274812  0.24210081    -0.12100
C276        C  0.39704392  0.36701030  0.25963582     0.01600
C277        C  0.38281209  0.35813964  0.28881897    -0.10600
C278        C  0.36051009  0.37690706  0.30244278     0.04100
C279        C  0.34393121  0.39654201  0.28245239    -0.10000
H280        H  0.39688447  0.40258425  0.22168352     0.09700
H281        H  0.39328355  0.34077576  0.30412604     0.07200
H282        H  0.32510988  0.40924978  0.29308996     0.07000
N283        N  0.42607923  0.48753935  0.41758538    -0.35700
N284        N  0.47068677  0.04212292  0.40867769    -0.56200
N285        N  0.03899187  0.49677761  0.39875407    -0.35700
N286        N  0.46879474  0.43658413  0.42477924    -0.56200
C287        C  0.40833137  0.01069096  0.40692389     0.27900
C288        C  0.40631529  0.46215533  0.41942589     0.27900
C289        C  0.03110506  0.01877603  0.41382851     0.27900
C290        C  0.02839091  0.47204892  0.41700535     0.27900
C291        C  0.44584995  0.05538847  0.39570238     0.36500
C292        C  0.99550225  0.05755780  0.39665625     0.36500
C293        C  0.44413773  0.41847818  0.41762086     0.36500
C294        C  0.99765043  0.42332221  0.41545520     0.36500
C295        C  0.37780338  0.00050607  0.40983353    -0.20900
C296        C  0.37612596  0.47248382  0.41866215    -0.20900
C297        C  0.01761674  0.01103373  0.44301936    -0.20900
C298        C  0.01611424  0.48281159  0.44503561    -0.20900
C299        C  0.45468892  0.08344429  0.37997099    -0.22000
C300        C  0.98600055  0.08360973  0.37965668    -0.22000
C301        C  0.45396424  0.38975037  0.40653760    -0.22000
C302        C  0.99253955  0.39211435  0.40789261    -0.22000
C303        C  0.41721902  0.03936360  0.39165523    -0.17400
C304        C  0.41421948  0.43051226  0.41317026    -0.17400
C305        C  0.02379969  0.44131969  0.40549524    -0.17300
C306        C  0.02610282  0.04704679  0.39687043    -0.17300
H307        H  0.35753592  0.01429922  0.40520534     0.15600
H308        H  0.35533645  0.45792908  0.41750396     0.15600
H309        H  0.00686804  0.02704211  0.45916530     0.15600
H310        H  0.00485484  0.46889361  0.46379674     0.15600
H311        H  0.44062044  0.09943072  0.36659336     0.13800
H312        H  0.00035792  0.10196187  0.36839400     0.13800
H313        H  0.43979287  0.37104302  0.39705695     0.13800
H314        H  0.00959548  0.37560354  0.40007532     0.13800
H315        H  0.44989738  0.48733509  0.41386573     0.27100
H316        H  0.04764824  0.49620917  0.37570517     0.27100
C317        C  0.15761008  0.45076106  0.24718030     0.43400
N318        N  0.19423280  0.48472248  0.25557684     0.02300
C319        C  0.28884508  0.06380632  0.14378994    -0.05600
H320        H  0.30336855  0.43763261  0.16033979     0.07800
C321        C  0.34091868  0.46400591  0.26878474    -0.05900
Co322      Co  0.22175102  0.01394941  0.19702220     0.74200
N323        N  0.27306637  0.47469050  0.17541084    -0.25100
Co324      Co  0.30272199  0.01058648  0.19471901     0.74100
C325        C  0.34948078  0.44129392  0.24497850     0.43500
N326        N  0.27545723  0.48884008  0.30348997     0.01900
N327        N  0.32315728  0.47901215  0.22383986     0.02000
N328        N  0.23760738  0.06785878  0.15119384    -0.46000
H329        H  0.16390924  0.45685740  0.19338822     0.07800
N330        N  0.24265972  0.47697686  0.17610375     0.02300
N331        N  0.32725701  0.04802431  0.21436304     0.02000
C332        C  0.35546540  0.09016493  0.22031854     0.43600
N333        N  0.24496183  0.48908352  0.30359347    -0.24600
C334        C  0.17416876  0.06957811  0.20820701    -0.05500
N335        N  0.17265403  0.46667330  0.26983541    -0.45700
N336        N  0.34605518  0.06860597  0.19927715    -0.45900
C337        C  0.16267165  0.08551615  0.23666180     0.43400
N338        N  0.24870793  0.04585110  0.16995231     0.02300
N339        N  0.24818338  0.05876481  0.29406810    -0.24600
N340        N  0.19353286  0.48260540  0.22465046    -0.25100
N341        N  0.27813731  0.05797080  0.29793466     0.01900
H342        H  0.21275243  0.08842252  0.31098820     0.07800
H343        H  0.34187220  0.09088547  0.27304051     0.07800
N344        N  0.27888295  0.04310450  0.16656833    -0.25100
N345        N  0.32409901  0.48555958  0.25405517    -0.24700
N346        N  0.19927446  0.05366105  0.24885202     0.02300
C347        C  0.25041999  0.43129078  0.15687064     0.43700
C348        C  0.23437324  0.46485767  0.32159309    -0.06000
N349        N  0.32418484  0.05395280  0.24459219    -0.24700
H350        H  0.34488389  0.46303651  0.29389906     0.07800
N351        N  0.22852858  0.45165502  0.16546669    -0.46000
H352        H  0.21021129  0.45847305  0.32524380     0.07800
C353        C  0.26261963  0.09682695  0.32610083     0.43500
C354        C  0.17146481  0.46149075  0.21704585    -0.05500
Co355      Co  0.22292745  0.02179913  0.27652036     0.73800
N356        N  0.28654669  0.46425954  0.31945160    -0.45700
C357        C  0.26123127  0.08054996  0.13350943     0.43800
N358        N  0.17957226  0.07381891  0.26044114    -0.45700
Co359      Co  0.29980494  0.52190497  0.27505478     0.73900
C360        C  0.33882972  0.08119205  0.24993164    -0.06000
C361        C  0.28031280  0.44661489  0.16318754    -0.05600
N362        N  0.19700594  0.05053048  0.21822736    -0.25100
N363        N  0.33738431  0.45215529  0.21742224    -0.45900
H364        H  0.31241298  0.06649281  0.13506126     0.07800
C365        C  0.23709915  0.08380092  0.30812663    -0.06000
Cl366      Cl  0.26240190  0.01673891  0.23615438    -0.49000
C367        C  0.26186949  0.44797241  0.33190461     0.43500
H368        H  0.16471097  0.06992417  0.18475811     0.07800
N369        N  0.28763706  0.07941932  0.31828949    -0.45700
C370        C  0.39061419  0.41711902  0.33011233     0.24500
C371        C  0.37000574  0.39107429  0.33251669    -0.23600
C372        C  0.36264844  0.37783230  0.36260733     0.19100
C373        C  0.37592301  0.39081120  0.38976920     0.24500
C374        C  0.39684499  0.41663395  0.38665221    -0.23500
C375        C  0.40398823  0.42927382  0.35657551     0.19400
F376        F  0.42560521  0.45262985  0.35261006    -0.13500
F377        F  0.39955240  0.42983708  0.30164421    -0.15800
F378        F  0.36925246  0.37778178  0.41866683    -0.15800
F379        F  0.34344486  0.35220267  0.36555030    -0.13500
C380        C  0.03848590  0.04362596  0.33891447     0.24500
C381        C  0.04544912  0.05633754  0.36845189    -0.23600
C382        C  0.06656956  0.08187487  0.36937983     0.19400
C383        C  0.08098795  0.09383458  0.34155283     0.24500
C384        C  0.07480824  0.08009187  0.31240194    -0.23500
C385        C  0.05367683  0.05475014  0.31134467     0.19400
F386        F  0.04654339  0.04192356  0.28330410    -0.13500
F387        F  0.01527118  0.02200392  0.33647645    -0.15800
F388        F  0.10098179  0.11882796  0.34303439    -0.15800
F389        F  0.07316774  0.09532173  0.39714026    -0.13500
C390        C  0.42160310  0.03879650  0.30543323     0.24500
C391        C  0.41221257  0.06948633  0.29905936    -0.23600
C392        C  0.39420348  0.08519292  0.32156828     0.19400
C393        C  0.38990542  0.07217400  0.35188027     0.24500
C394        C  0.40454397  0.04404830  0.35982201    -0.23500
C395        C  0.41772943  0.02603621  0.33574447     0.19400
F396        F  0.43116169  0.99823682  0.34268611    -0.13500
F397        F  0.43687404  0.02238593  0.28317199    -0.15800
F398        F  0.37617911  0.08933657  0.37456753    -0.15800
F399        F  0.38255414  0.11399384  0.31477299    -0.13500
C400        C  0.07379544  0.41700052  0.33730063     0.24500
C401        C  0.06306119  0.43720036  0.31326038    -0.23600
C402        C  0.03578334  0.45365837  0.31800608     0.19400
C403        C  0.02122959  0.45237031  0.34758180     0.24500
C404        C  0.03466944  0.43582649  0.37287066    -0.23500
C405        C  0.05917660  0.41593786  0.36689146     0.19400
F406        F  0.06846627  0.39538107  0.38952798    -0.13500
F407        F  0.09814058  0.39808822  0.33182827    -0.15800
F408        F  0.99529233  0.46906493  0.35243509    -0.15800
F409        F  0.02367912  0.47122589  0.29425111    -0.13500
C410        C  0.16768872  0.36284595  0.36610265     0.24500
C411        C  0.19541367  0.38041060  0.36780457    -0.23600
C412        C  0.19770968  0.40409592  0.39056866     0.19400
C413        C  0.17502344  0.40696517  0.41343808     0.24500
C414        C  0.14689219  0.39043495  0.41129581    -0.23500
C415        C  0.14299738  0.36849626  0.38722982     0.19400
F416        F  0.11539854  0.35337460  0.38384729    -0.13500
F417        F  0.16436701  0.34148823  0.34315745    -0.15800
F418        F  0.17926218  0.42855564  0.43623690    -0.15800
F419        F  0.22256619  0.42378853  0.39228172    -0.13500
C420        C  0.15343430  0.05130019  0.44419454     0.24500
C421        C  0.13282534  0.04048902  0.42111124    -0.23600
C422        C  0.13669337  0.05213924  0.38998209     0.19400
C423        C  0.16162453  0.07246245  0.38188258     0.24500
C424        C  0.18273833  0.08194777  0.40494682    -0.23500
C425        C  0.17775468  0.07214861  0.43629125     0.19400
F426        F  0.19767279  0.08112307  0.45896652    -0.13500
F427        F  0.15117762  0.04022514  0.47432858    -0.15800
F428        F  0.16551330  0.08240195  0.35138138    -0.15800
F429        F  0.11722216  0.04289465  0.36713768    -0.13500
C430        C  0.15843701  0.01634473  0.04400014     0.24500
C431        C  0.13052523  0.02572887  0.05818627    -0.23600
C432        C  0.13040449  0.05287834  0.07629166     0.19400
C433        C  0.15711006  0.07203638  0.07749822     0.24500
C434        C  0.18383094  0.06435007  0.06021778    -0.23500
C435        C  0.18470801  0.03578495  0.04453174     0.19400
F436        F  0.21099807  0.02690075  0.02957201    -0.13500
F437        F  0.15943283  0.98935699  0.02754698    -0.15800
F438        F  0.15740453  0.09757704  0.09612841    -0.15800
F439        F  0.10437846  0.06092270  0.09208575    -0.13500
C440        C  0.14297679  0.35771747  0.12000297     0.24500
C441        C  0.17249158  0.37213623  0.11665161    -0.23600
C442        C  0.17818781  0.39400777  0.09164267     0.19400
C443        C  0.15573767  0.40033612  0.06977192     0.24500
C444        C  0.12643840  0.38579069  0.07243326    -0.23500
C445        C  0.11982463  0.36470560  0.09793409     0.19400
F446        F  0.09110076  0.35156749  0.10153873    -0.13500
F447        F  0.13659755  0.33761657  0.14471530    -0.15800
F448        F  0.16235304  0.42166591  0.04607669    -0.15800
F449        F  0.20605589  0.40902121  0.08783961    -0.13500
C450        C  0.41577523  0.15386679  0.43085313     0.24500
C451        C  0.42519303  0.18308505  0.44299110    -0.23600
C452        C  0.43387991  0.18445931  0.47464278     0.19400
C453        C  0.43605612  0.15692960  0.49288210     0.24500
C454        C  0.43027384  0.12730827  0.47969138    -0.23500
C455        C  0.41759231  0.12612800  0.44945567     0.19400
F456        F  0.41065150  0.09791453  0.43677571    -0.13500
F457        F  0.40559965  0.15216231  0.40083335    -0.15800
F458        F  0.44793934  0.15886505  0.52216815    -0.15800
F459        F  0.44182775  0.21244584  0.48744294    -0.13500
C460        C  0.06683329  0.21971340  0.46360680     0.24500
C461        C  0.08500743  0.21820957  0.43621832    -0.23600
C462        C  0.10058310  0.19033533  0.42920700     0.19400
C463        C  0.09672596  0.16361229  0.44883048     0.24500
C464        C  0.07702744  0.16464465  0.47527681    -0.23500
C465        C  0.06262550  0.19296950  0.48294340     0.19400
F466        F  0.04346572  0.19420290  0.50856401    -0.13500
F467        F  0.05279014  0.24687545  0.47118629    -0.15800
F468        F  0.11103785  0.13652121  0.44148378    -0.15800
F469        F  0.11949123  0.18915664  0.40338471    -0.13500
C470        C  0.44202765  0.15402440  0.11216224     0.24500
C471        C  0.43260412  0.12317297  0.12097506    -0.23600
C472        C  0.40351315  0.11786091  0.13589969     0.19400
C473        C  0.38358140  0.14323031  0.14040875     0.24500
C474        C  0.39308635  0.17381039  0.13058146    -0.23500
C475        C  0.42235041  0.17876714  0.11624784     0.19400
F476        F  0.43134674  0.20764287  0.10450433    -0.13500
F477        F  0.46926575  0.15977406  0.09638459    -0.15800
F478        F  0.35477894  0.13784204  0.15280100    -0.15800
F479        F  0.39352856  0.08804041  0.14333444    -0.13500
C480        C  0.10127572  0.13607235  0.14168717     0.24500
C481        C  0.07382178  0.14103187  0.12495350    -0.23600
C482        C  0.06636089  0.17172034  0.11538222     0.19400
C483        C  0.08841286  0.19563811  0.11649595     0.24500
C484        C  0.11644477  0.19111975  0.13223279    -0.23500
C485        C  0.12235935  0.16139905  0.14583528     0.19400
F486        F  0.14945757  0.15645526  0.16057469    -0.13500
F487        F  0.10862270  0.10658603  0.15157509    -0.15800
F488        F  0.08328741  0.22251889  0.09959185    -0.15800
F489        F  0.04007502  0.17707569  0.09912112    -0.13500
C490        C  0.23390034  0.16370842  0.54791604     0.43400
N491        N  0.22903134  0.20259491  0.51469827     0.02300
C492        C  0.35225101  0.29954793  0.94154854    -0.05600
H493        H  0.33767615  0.30847726  0.56353000     0.07800
C494        C  0.22693842  0.34573293  0.55089871    -0.05900
Co495      Co  0.29886411  0.22941951  0.98720670     0.74200
N496        N  0.31510349  0.27903483  0.52938208    -0.25100
Co497      Co  0.29704597  0.30907226  0.49511071     0.74100
C498        C  0.25196979  0.35134077  0.57258913     0.43500
N499        N  0.18701991  0.28636795  0.51961470     0.01900
N500        N  0.26991084  0.33085689  0.53018135     0.02000
N501        N  0.34281883  0.24828362  0.93379647    -0.46000
H502        H  0.28708062  0.16832798  0.54509138     0.07800
N503        N  0.31156700  0.24819862  0.52709970     0.02300
N504        N  0.28130767  0.33889418  0.96276748     0.02000
C505        C  0.27082090  0.36724350  0.92122607     0.43600
N506        N  0.18501578  0.25578279  0.51503646    -0.24600
C507        C  0.28738080  0.18885111  0.92770628    -0.05500
N508        N  0.21323840  0.18061443  0.53134897    -0.45700
N509        N  0.29416952  0.35402613  0.93767417    -0.45900
C510        C  0.25996796  0.17719413  0.91140358     0.43400
N511        N  0.32498831  0.25869276  0.95658058     0.02300
N512        N  0.20107515  0.26167521  0.94770386    -0.24600
N513        N  0.25918886  0.20069977  0.51830692    -0.25100
N514        N  0.19932656  0.29212396  0.95224291     0.01900
H515        H  0.17920079  0.23054806  0.91556380     0.07800
H516        H  0.21867624  0.35953243  0.93175428     0.07800
N517        N  0.32925956  0.28899961  0.96140364    -0.25100
N518        N  0.23978289  0.33243909  0.52624958    -0.24700
N519        N  0.24657781  0.21075162  0.94620900     0.02300
C520        C  0.33726147  0.25438954  0.56985155     0.43700
C521        C  0.16606782  0.24258220  0.53706548    -0.06000
N522        N  0.25084930  0.33962066  0.96251295    -0.24700
H523        H  0.20241512  0.34876958  0.55404356     0.07800
N524        N  0.32437585  0.23275772  0.55078958    -0.46000
H525        H  0.16075006  0.21762146  0.53945245     0.07800
C526        C  0.16871617  0.28328137  0.91302164     0.43500
C527        C  0.26454648  0.17703969  0.53915262    -0.05500
Co528      Co  0.22002363  0.23126254  0.98090429     0.73800
N529        N  0.17090342  0.29472598  0.54513812    -0.45700
C530        C  0.36134253  0.27222049  0.92272144     0.43800
N531        N  0.23567544  0.19168952  0.92466295    -0.45700
Co532      Co  0.21638844  0.31412482  0.48891792     0.73900
C533        C  0.24236858  0.35767686  0.93851999    -0.06000
C534        C  0.33119791  0.28528940  0.55556113    -0.05600
N535        N  0.27674716  0.20917100  0.94895826    -0.25100
N536        N  0.27826083  0.34126023  0.55837456    -0.45900
H537        H  0.36224354  0.32310515  0.94102719     0.07800
C538        C  0.18440878  0.25438082  0.92261558    -0.06000
Cl539      Cl  0.25350110  0.27097613  0.48837834    -0.49000
C540        C  0.15669484  0.26816458  0.55748845     0.43500
H541        H  0.31075068  0.18033699  0.92652848     0.07800
N542        N  0.17942270  0.30562969  0.93283424    -0.45700
C543        C  0.14486245  0.26324935  0.59082930     0.04100
C544        C  0.12265999  0.28278913  0.60560777    -0.12100
C545        C  0.11181372  0.27525843  0.63700234     0.01600
C546        C  0.12609068  0.25026974  0.65312170    -0.10600
C547        C  0.13743895  0.22591722  0.63512733     0.04100
C548        C  0.15151263  0.23430301  0.60617385    -0.10000
H549        H  0.11169717  0.30094875  0.59176791     0.09700
H550        H  0.11745419  0.24366720  0.67660576     0.07200
H551        H  0.16345634  0.21612080  0.59369446     0.07000
C552        C  0.35390102  0.24574624  0.59919060     0.04100
C553        C  0.35084293  0.21409876  0.60959140    -0.12100
C554        C  0.36949704  0.20231076  0.63324886     0.01600
C555        C  0.38505024  0.22361223  0.65210901    -0.10600
C556        C  0.39328577  0.25375120  0.63970939     0.04100
C557        C  0.37643593  0.26557617  0.61358700    -0.10000
H558        H  0.33775794  0.19729514  0.59600900     0.09700
H559        H  0.39838956  0.21369342  0.67122348     0.07200
H560        H  0.38267725  0.28830610  0.60291972     0.07000
C561        C  0.09362056  0.26989740  0.86922544     0.04100
C562        C  0.12298499  0.28323389  0.87582948    -0.12100
C563        C  0.13533494  0.27974134  0.90639881     0.01600
C564        C  0.11793887  0.26320025  0.92975823    -0.10600
C565        C  0.09141688  0.24635990  0.92197148     0.04100
C566        C  0.07849334  0.25072114  0.89234990    -0.10000
H567        H  0.13674392  0.29395739  0.85686388     0.09700
H568        H  0.12794752  0.25871432  0.95270780     0.07200
H569        H  0.05778116  0.23735644  0.88662688     0.07000
C570        C  0.43115852  0.25147625  0.87163877     0.04100
C571        C  0.44060735  0.22562789  0.89056324    -0.12100
C572        C  0.42771056  0.21985794  0.92070585     0.01600
C573        C  0.40607815  0.24039014  0.93247761    -0.10600
C574        C  0.39322709  0.26372658  0.91317841     0.04100
C575        C  0.40649878  0.27011347  0.88280300    -0.10000
H576        H  0.45793906  0.20977272  0.88195613     0.09700
H577        H  0.39589266  0.23517981  0.95565064     0.07200
H578        H  0.39650453  0.28770128  0.86735234     0.07000
N579        N  0.50524972  0.11322492  0.00432068    -0.35700
N580        N  0.06134050  0.11764014  0.54802742    -0.56200
N581        N  0.50460756  0.09620586  0.59887790    -0.35700
N582        N  0.45864595  0.09073409  0.54772447    -0.56200
C583        C  0.03185959  0.12216251  0.98082543     0.27900
C584        C  0.48208893  0.10329821  0.98612605     0.27900
C585        C  0.03542989  0.10686671  0.61475131     0.27900
C586        C  0.47777522  0.10085643  0.61501668     0.27900
C587        C  0.07001180  0.12750882  0.02412881     0.36500
C588        C  0.07671891  0.12458444  0.57443914     0.36500
C589        C  0.43981476  0.09900362  0.02413730     0.36500
C590        C  0.44004590  0.08628356  0.57331769     0.36500
C591        C  0.02202232  0.13067600  0.95095088    -0.20900
C592        C  0.49257020  0.10036818  0.95562241    -0.20900
C593        C  0.02330461  0.10723723  0.64524050    -0.20900
C594        C  0.48425005  0.11378376  0.64395733    -0.20900
C595        C  0.09893276  0.13680959  0.03402775    -0.22000
C596        C  0.10343839  0.14216928  0.56623821    -0.22000
C597        C  0.40948732  0.10186060  0.03359260    -0.22000
C598        C  0.40991014  0.08069410  0.56375972    -0.22000
C599        C  0.05911988  0.13454565  0.99383917    -0.17400
C600        C  0.45122937  0.10760840  0.99400378    -0.17400
C601        C  0.44734567  0.09847930  0.60298910    -0.17300
C602        C  0.06472955  0.12081634  0.60594785    -0.17300
H603        H  0.03448313  0.14442505  0.93286186     0.15600
H604        H  0.47819603  0.09671354  0.93569581     0.15600
H605        H  0.03492880  0.11495744  0.66619396     0.15600
H606        H  0.46776221  0.12087563  0.66178238     0.15600
H607        H  0.11719072  0.14864146  0.02022532     0.13800
H608        H  0.12038542  0.15236731  0.58160208     0.13800
H609        H  0.39016637  0.10856148  0.01917790     0.13800
H610        H  0.38933682  0.07883863  0.57860014     0.13800
H611        H  0.50276090  0.12228852  0.02676556     0.27100
H612        H  0.50672863  0.08757053  0.57628627     0.27100
C613        C  0.07919006  0.17244035  0.74052202     0.43400
N614        N  0.04662091  0.20844352  0.75223876     0.02300
C615        C  0.43865047  0.29464521  0.65850665    -0.05600
H616        H  0.06758951  0.33125705  0.65748953     0.07800
C617        C  0.05938350  0.35237654  0.76837440    -0.05900
Co618      Co  0.50622150  0.23227014  0.68870408     0.74200
N619        N  0.03654193  0.29377661  0.67552877    -0.25100
Co620      Co  0.50100194  0.31406462  0.69427446     0.74100
C621        C  0.06967291  0.37215067  0.74142791     0.43500
N622        N  0.04293562  0.28366283  0.80639574     0.01900
N623        N  0.03309459  0.34020543  0.72757822     0.02000
N624        N  0.44670639  0.24277236  0.65464846    -0.46000
H625        H  0.06526780  0.17560668  0.68817037     0.07800
N626        N  0.03836828  0.26277502  0.67452124     0.02300
N627        N  0.46716967  0.33276916  0.72465732     0.02000
C628        C  0.42678593  0.35395618  0.74521996     0.43600
N629        N  0.04509499  0.25297272  0.80388460    -0.24600
C630        C  0.45291755  0.18374684  0.70393214    -0.05500
N631        N  0.06679305  0.18885885  0.76409482    -0.45700
N632        N  0.44094757  0.34719864  0.71742162    -0.45900
C633        C  0.44040364  0.16783060  0.73234408     0.43400
N634        N  0.47012295  0.25681177  0.66838656     0.02300
N635        N  0.47785402  0.24538496  0.79965585    -0.24600
N636        N  0.04461928  0.20725469  0.72135012    -0.25100
N637        N  0.47638369  0.27612176  0.80314280     0.01900
H638        H  0.45742942  0.20562932  0.82522499     0.07800
H639        H  0.44365229  0.34288100  0.79549367     0.07800
N640        N  0.46649259  0.28742576  0.67099249    -0.25100
N641        N  0.03616848  0.33468988  0.75808332    -0.24700
N642        N  0.47655705  0.20090269  0.74513152     0.02300
C643        C  0.07888708  0.27928334  0.64766511     0.43700
C644        C  0.06806246  0.24300568  0.82208605    -0.06000
N645        N  0.47077832  0.32943035  0.75546123    -0.24700
H646        H  0.06572655  0.35424017  0.79284169     0.07800
N647        N  0.06267136  0.25365010  0.65850870    -0.46000
H648        H  0.07354831  0.21858933  0.82666566     0.07800
C649        C  0.44552968  0.25601606  0.83944198     0.43500
C650        C  0.06423153  0.18475875  0.71166144    -0.05500
Co651      Co  0.51099119  0.22559479  0.77018609     0.73800
N652        N  0.06283452  0.29532617  0.82686561    -0.45700
C653        C  0.42544450  0.26447918  0.64755264     0.43800
N654        N  0.45664580  0.17933916  0.75681967    -0.45700
Co655      Co  0.50759170  0.30565949  0.77644966     0.73900
C656        C  0.44686196  0.34234419  0.77016934    -0.06000
C657        C  0.06158284  0.30642590  0.65950456    -0.05600
N658        N  0.47504877  0.20353948  0.71414251    -0.25100
N659        N  0.05186554  0.36349508  0.71688176    -0.45900
H660        H  0.42843827  0.31767819  0.65822616     0.07800
C661        C  0.45914515  0.23086231  0.82112551    -0.06000
Cl662      Cl  0.50637319  0.26938985  0.73248679    -0.49000
C663        C  0.08022352  0.27111760  0.83733586     0.43500
H664        H  0.44769173  0.17955182  0.67951443     0.07800
N665        N  0.45777426  0.28352096  0.82713110    -0.45700
C666        C  0.24576068  0.35746355  0.60649298     0.04100
C667        C  0.21751357  0.34426554  0.61815942    -0.12100
C668        C  0.19651257  0.36429681  0.63218359     0.01600
C669        C  0.20865778  0.38860808  0.64984388    -0.10600
C670        C  0.23899761  0.40018815  0.64361749     0.04100
C671        C  0.25749060  0.38499739  0.62079593    -0.10000
H672        H  0.20777951  0.32394256  0.60650844     0.09700
H673        H  0.19243858  0.40250846  0.66305018     0.07200
H674        H  0.27837112  0.39657351  0.61149417     0.07000
C675        C  0.22675392  0.13225468  0.56309592     0.04100
C676        C  0.20108347  0.11422506  0.55289572    -0.12100
C677        C  0.19563162  0.08343543  0.56490137     0.01600
C678        C  0.21532340  0.07088687  0.58711347    -0.10600
C679        C  0.23828990  0.08947561  0.60064985     0.04100
C680        C  0.24490913  0.11996989  0.58789952    -0.10000
H681        H  0.18569530  0.12378513  0.53536211     0.09700
H682        H  0.21024928  0.04734469  0.59670112     0.07200
H683        H  0.26276905  0.13453122  0.59817083     0.07000
C684        C  0.25647792  0.14500538  0.89942167     0.04100
C685        C  0.23627383  0.12361186  0.91576438    -0.12100
C686        C  0.23154123  0.09314669  0.90486359     0.01600
C687        C  0.24818188  0.08348636  0.87867564    -0.10600
C688        C  0.26488290  0.10557183  0.85959447     0.04100
C689        C  0.27015836  0.13621849  0.87060418    -0.10000
H690        H  0.22308299  0.13107661  0.93611401     0.09700
H691        H  0.24338717  0.06008210  0.86993673     0.07200
H692        H  0.28265261  0.15361444  0.85593928     0.07000
C693        C  0.26341207  0.41467460  0.84531359     0.04100
C694        C  0.23722294  0.39738488  0.83542735    -0.12100
C695        C  0.22527502  0.37294002  0.85457819     0.01600
C696        C  0.24687732  0.35580157  0.87132432    -0.10600
C697        C  0.27025214  0.37319864  0.88628763     0.04100
C698        C  0.27986488  0.40270269  0.87189126    -0.10000
H699        H  0.22180923  0.40750749  0.81826458     0.09700
H700        H  0.23849042  0.33393800  0.88255129     0.07200
H701        H  0.29613316  0.41790961  0.88373131     0.07000
N702        N  0.09182033  0.00072969  0.48321566    -0.35700
N703        N  0.10849251  0.46017981  0.94377370    -0.56200
N704        N  0.10136137  0.40705796  0.48479593    -0.35700
N705        N  0.08441145  0.45236141  0.53317465    -0.56200
C706        C  0.10761111  0.02691174  0.96499271     0.27900
C707        C  0.08067077  0.01647895  0.50788309     0.27900
C708        C  0.11734530  0.39264499  0.96733924     0.27900
C709        C  0.10678307  0.38982062  0.51161059     0.27900
C710        C  0.11819093  0.98911127  0.92314376     0.36500
C711        C  0.11715338  0.43643362  0.92541065     0.36500
C712        C  0.08296660  0.97716432  0.55050370     0.36500
C713        C  0.08907048  0.42768810  0.55294647     0.36500
C714        C  0.10544495  0.05746730  0.97512127    -0.20900
C715        C  0.07318230  0.04667597  0.49830792    -0.20900
C716        C  0.12837371  0.36393940  0.97805939    -0.20900
C717        C  0.12196645  0.36259633  0.50368081    -0.20900
C718        C  0.12706831  0.98258411  0.89268622    -0.22000
C719        C  0.12728315  0.44870179  0.89616166    -0.22000
C720        C  0.08633239  0.96841086  0.58171904    -0.22000
C721        C  0.08860248  0.43778961  0.58398303    -0.22000
C722        C  0.12188520  0.01879550  0.93649120    -0.17400
C723        C  0.08756932  0.00808594  0.53891365    -0.17400
C724        C  0.10263701  0.39924762  0.54353517    -0.17300
C725        C  0.12409154  0.40547569  0.93651487    -0.17300
H726        H  0.11163621  0.07879255  0.96188238     0.15600
H727        H  0.06627068  0.06549782  0.51336628     0.15600
H728        H  0.14112796  0.34701271  0.96465976     0.15600
H729        H  0.12999204  0.34432771  0.51961460     0.15600
H730        H  0.13510925  0.99911222  0.87435915     0.13800
H731        H  0.13690577  0.43600999  0.87661086     0.13800
H732        H  0.08928851  0.98379525  0.60147965     0.13800
H733        H  0.09339660  0.42418653  0.60516273     0.13800
H734        H  0.10359946  0.97972149  0.48481347     0.27100
H735        H  0.09089743  0.42872871  0.48329959     0.27100
C736        C  0.08016395  0.40471465  0.74749639     0.04100
C737        C  0.11102036  0.41474225  0.74139582    -0.12100
C738        C  0.12532723  0.43671086  0.76136636     0.01600
C739        C  0.10929306  0.44592637  0.78865528    -0.10600
C740        C  0.07837015  0.43666162  0.79374441     0.04100
C741        C  0.06309996  0.41951394  0.77102691    -0.10000
H742        H  0.12443665  0.40382847  0.72301010     0.09700
H743        H  0.12082526  0.45979753  0.80626121     0.07200
H744        H  0.03945876  0.41156770  0.77605776     0.07000
C745        C  0.38499762  0.09830661  0.71619879     0.04100
C746        C  0.39969012  0.07547183  0.73461284    -0.12100
C747        C  0.41733328  0.08575172  0.75945957     0.01600
C748        C  0.43185861  0.11530059  0.75738689    -0.10600
C749        C  0.42374135  0.13694150  0.73372727     0.04100
C750        C  0.39817316  0.12930492  0.71452608    -0.10000
H751        H  0.38927494  0.05197923  0.73674777     0.09700
H752        H  0.44733443  0.12222143  0.77595042     0.07200
H753        H  0.38741515  0.14772680  0.70083340     0.07000
C754        C  0.08930172  0.13977339  0.74811443     0.04100
C755        C  0.07408932  0.12407719  0.77397167    -0.12100
C756        C  0.08573151  0.09670283  0.78770985     0.01600
C757        C  0.11213437  0.08366634  0.77456871    -0.10600
C758        C  0.12807413  0.09846154  0.74877029     0.04100
C759        C  0.11641199  0.12660797  0.73525687    -0.10000
H760        H  0.05374535  0.13409255  0.78473918     0.09700
H761        H  0.12132732  0.06269915  0.78575976     0.07200
H762        H  0.12947525  0.13926705  0.71681551     0.07000
C763        C  0.35518667  0.40666826  0.74635366     0.04100
C764        C  0.38211000  0.39194897  0.73416935    -0.12100
C765        C  0.39470836  0.36565462  0.75077887     0.01600
C766        C  0.38003955  0.35510877  0.77916969    -0.10600
C767        C  0.35799319  0.37358275  0.79364292     0.04100
C768        C  0.34135445  0.39395846  0.77437241    -0.10000
H769        H  0.39490880  0.40287160  0.71450138     0.09700
H770        H  0.39066379  0.33720773  0.79375449     0.07200
H771        H  0.32272342  0.40651903  0.78555161     0.07000
N772        N  0.42449438  0.48643567  0.90525947    -0.35700
N773        N  0.46842793  0.04484894  0.89784052    -0.56200
N774        N  0.03942093  0.49642668  0.91099228    -0.35700
N775        N  0.46499629  0.43465737  0.91757952    -0.56200
C776        C  0.40450233  0.01507560  0.89953990     0.27900
C777        C  0.40389430  0.46180546  0.90816516     0.27900
C778        C  0.03508276  0.02131968  0.92277008     0.27900
C779        C  0.02839891  0.47189733  0.92925212     0.27900
C780        C  0.44282077  0.05962093  0.88868683     0.36500
C781        C  0.99785211  0.05856985  0.90560824     0.36500
C782        C  0.44028019  0.41699439  0.90962044     0.36500
C783        C  0.99824916  0.42257412  0.92732060     0.36500
C784        C  0.37393696  0.00473772  0.90082995    -0.20900
C785        C  0.37409041  0.47303749  0.90633039    -0.20900
C786        C  0.02271262  0.01484114  0.95274562    -0.20900
C787        C  0.01480757  0.48312135  0.95648893    -0.20900
C788        C  0.45109031  0.08881658  0.87475496    -0.22000
C789        C  0.98731275  0.08476405  0.88960292    -0.22000
C790        C  0.44983904  0.38775307  0.89967676    -0.22000
C791        C  0.99339170  0.39157524  0.91877953    -0.22000
C792        C  0.41394147  0.04397847  0.88463550    -0.17400
C793        C  0.41089443  0.42964088  0.90364743    -0.17400
C794        C  0.02435248  0.44099560  0.91781415    -0.17300
C795        C  0.02864702  0.04867383  0.90469654    -0.17300
H796        H  0.35389563  0.01834551  0.89479686     0.15600
H797        H  0.35288666  0.45908193  0.90552452     0.15600
H798        H  0.01238116  0.03157409  0.96842040     0.15600
H799        H  0.00293361  0.46946316  0.97505128     0.15600
H800        H  0.43625171  0.10622295  0.86442707     0.13800
H801        H  0.00090366  0.10346530  0.87795063     0.13800
H802        H  0.43569128  0.36920526  0.88987016     0.13800
H803        H  0.01059717  0.37549430  0.91040068     0.13800
H804        H  0.44830839  0.48526978  0.90180421     0.27100
H805        H  0.04901630  0.49545155  0.88833920     0.27100
C806        C  0.15700884  0.44947244  0.75492707     0.43400
N807        N  0.19436138  0.48319776  0.76066230     0.02300
C808        C  0.27681393  0.06305317  0.64069102    -0.05600
H809        H  0.29950269  0.44006697  0.65550305     0.07800
C810        C  0.34067437  0.46252057  0.76402158    -0.05900
Co811      Co  0.21502023  0.01335925  0.70046579     0.74200
N812        N  0.26905640  0.47493373  0.67489658    -0.25100
Co813      Co  0.29576400  0.01112731  0.69169138     0.74100
C814        C  0.34771656  0.44042351  0.73909753     0.43500
N815        N  0.27772725  0.48780335  0.80342466     0.01900
N816        N  0.32138563  0.47937553  0.72038441     0.02000
N817        N  0.22596005  0.06539958  0.65173761    -0.46000
H818        H  0.16042892  0.45472621  0.70084894     0.07800
N819        N  0.23866156  0.47606504  0.67786152     0.02300
N820        N  0.32200542  0.04950444  0.70873996     0.02000
C821        C  0.35136215  0.09154265  0.71321122     0.43600
N822        N  0.24730680  0.48872110  0.80551406    -0.24600
C823        C  0.16922802  0.06969064  0.71280408    -0.05500
N824        N  0.17340555  0.46559483  0.77640807    -0.45700
N825        N  0.34080294  0.06961886  0.69280173    -0.45900
C826        C  0.15930906  0.08653932  0.74115038     0.43400
N827        N  0.23921660  0.04453622  0.67024492     0.02300
N828        N  0.24806140  0.06091160  0.79502881    -0.24600
N829        N  0.19205489  0.48059226  0.72988402    -0.25100
N830        N  0.27839119  0.06050670  0.79467000     0.01900
H831        H  0.21505423  0.08892579  0.81890973     0.07800
H832        H  0.33979552  0.09281856  0.76624319     0.07800
N833        N  0.26922625  0.04267671  0.66470276    -0.25100
N834        N  0.32380086  0.48499843  0.75072519    -0.24700
N835        N  0.19581707  0.05450807  0.75276328     0.02300
C836        C  0.24660071  0.43182846  0.65571320     0.43700
C837        C  0.23731377  0.46569169  0.82527493    -0.06000
N838        N  0.32043282  0.05588243  0.73893466    -0.24700
H839        H  0.34547234  0.46045262  0.78892306     0.07800
N840        N  0.22462578  0.45089280  0.66683785    -0.46000
H841        H  0.21326895  0.46028292  0.83090556     0.07800
C842        C  0.26685803  0.09830506  0.82580501     0.43500
C843        C  0.16947820  0.45946015  0.72391648    -0.05500
Co844      Co  0.22142972  0.02355903  0.77969474     0.73800
N845        N  0.28918899  0.46351316  0.81965743    -0.45700
C846        C  0.24784963  0.07855647  0.63225277     0.43800
N847        N  0.17691969  0.07530588  0.76464745    -0.45700
Co848      Co  0.30069962  0.52113928  0.77363274     0.73900
C849        C  0.33552587  0.08309949  0.74335457    -0.06000
C850        C  0.27638079  0.44784581  0.66074911    -0.05600
N851        N  0.19202110  0.05051757  0.72239877    -0.25100
N852        N  0.33459957  0.45238240  0.71254472    -0.45900
H853        H  0.29958966  0.06622912  0.63003553     0.07800
C854        C  0.23882170  0.08510219  0.81189359    -0.06000
Cl855      Cl  0.25824245  0.01780020  0.73609547    -0.49000
C856        C  0.26486466  0.44841196  0.83444986     0.43500
H857        H  0.15888334  0.06965653  0.68976546     0.07800
N858        N  0.29052744  0.08167269  0.81370491    -0.45700
C859        C  0.38996190  0.41284771  0.82063208     0.24500
C860        C  0.36850464  0.38753089  0.82344491    -0.23600
C861        C  0.36002170  0.37563642  0.85376292     0.19100
C862        C  0.37264830  0.38958177  0.88075525     0.24500
C863        C  0.39391918  0.41508739  0.87725236    -0.23500
C864        C  0.40228796  0.42626543  0.84695318     0.19400
F865        F  0.42394251  0.44956235  0.84273076    -0.13500
F866        F  0.40037025  0.42396319  0.79204086    -0.15800
F867        F  0.36482354  0.37794622  0.90992528    -0.15800
F868        F  0.34039517  0.35037014  0.85712751    -0.13500
C869        C  0.04039397  0.04414458  0.84647385     0.24500
C870        C  0.04682096  0.05831414  0.87548598    -0.23600
C871        C  0.06492615  0.08621961  0.87496221     0.19400
C872        C  0.07742184  0.09880469  0.84641322     0.24500
C873        C  0.07222207  0.08355275  0.81782054    -0.23500
C874        C  0.05368146  0.05607192  0.81812105     0.19400
F875        F  0.04717405  0.04171980  0.79067667    -0.13500
F876        F  0.01930184  0.02023166  0.84525145    -0.15800
F877        F  0.09447495  0.12602267  0.84662727    -0.15800
F878        F  0.06972280  0.10179875  0.90205035    -0.13500
C879        C  0.41831598  0.04110352  0.79818100     0.24500
C880        C  0.41013248  0.07192238  0.79073965    -0.23600
C881        C  0.39329647  0.08933541  0.81288951     0.19400
C882        C  0.38866587  0.07751517  0.84364231     0.24500
C883        C  0.40194126  0.04887008  0.85246452    -0.23500
C884        C  0.41429834  0.02961372  0.82893473     0.19400
F885        F  0.42676954  0.00157561  0.83670135    -0.13500
F886        F  0.43261176  0.02323304  0.77643764    -0.15800
F887        F  0.37593536  0.09610569  0.86577719    -0.15800
F888        F  0.38298977  0.11849972  0.80520266    -0.13500
C889        C  0.07510570  0.41745174  0.84948412     0.24500
C890        C  0.06403765  0.43738533  0.82537120    -0.23600
C891        C  0.03645802  0.45339768  0.83029086     0.19400
C892        C  0.02192808  0.45189069  0.85989511     0.24500
C893        C  0.03568548  0.43571974  0.88521787    -0.23500
C894        C  0.06060093  0.41631856  0.87921422     0.19400
F895        F  0.07008231  0.39582009  0.90181376    -0.13500
F896        F  0.09943695  0.39859417  0.84384786    -0.15800
F897        F  0.99547819  0.46783628  0.86467795    -0.15800
F898        F  0.02390403  0.47066551  0.80658245    -0.13500
C899        C  0.16983742  0.36352624  0.87307070     0.24500
C900        C  0.19765326  0.38109427  0.87396041    -0.23600
C901        C  0.20076559  0.40445560  0.89698132     0.19400
C902        C  0.17840061  0.40764483  0.92020657     0.24500
C903        C  0.14999657  0.39148531  0.91850187    -0.23500
C904        C  0.14563718  0.36927141  0.89477017     0.19400
F905        F  0.11801877  0.35394185  0.89223689    -0.13500
F906        F  0.16593364  0.34195057  0.85042411    -0.15800
F907        F  0.18319947  0.42921803  0.94290777    -0.15800
F908        F  0.22619950  0.42340297  0.89857389    -0.13500
C909        C  0.17769275  0.03211576  0.94378981     0.24500
C910        C  0.15017632  0.03743288  0.92729020    -0.23600
C911        C  0.15000425  0.06050423  0.90324473     0.19400
C912        C  0.17634828  0.07935342  0.89694283     0.24500
C913        C  0.20349575  0.07476259  0.91414066    -0.23500
C914        C  0.20430354  0.05051695  0.93705789     0.19400
F915        F  0.23088957  0.04435705  0.95238271    -0.13500
F916        F  0.17879153  0.00867941  0.96606610    -0.15800
F917        F  0.17573156  0.10165044  0.87346003    -0.15800
F918        F  0.12467286  0.06415385  0.88543906    -0.13500
C919        C  0.14475206  0.01644944  0.53833749     0.24500
C920        C  0.11550871  0.02503912  0.55006301    -0.23600
C921        C  0.11321285  0.05182752  0.56836470     0.19400
C922        C  0.13942920  0.07114012  0.57280882     0.24500
C923        C  0.16769157  0.06459323  0.55782953    -0.23500
C924        C  0.17050964  0.03631546  0.54179466     0.19400
F925        F  0.19829662  0.02787952  0.52967301    -0.13500
F926        F  0.14809274  0.98936142  0.52237432    -0.15800
F927        F  0.13807943  0.09500740  0.59329145    -0.15800
F928        F  0.08584425  0.05849366  0.58239303    -0.13500
C929        C  0.14056988  0.36050250  0.61527181     0.24500
C930        C  0.17061258  0.37337732  0.61164179    -0.23600
C931        C  0.17730403  0.39447082  0.58616792     0.19400
C932        C  0.15553364  0.40041263  0.56342250     0.24500
C933        C  0.12571884  0.38702149  0.56621110    -0.23500
C934        C  0.11796509  0.36755349  0.59270250     0.19400
F935        F  0.08852989  0.35646811  0.59711556    -0.13500
F936        F  0.13306874  0.34220496  0.64102792    -0.15800
F937        F  0.16326723  0.42042414  0.53890686    -0.15800
F938        F  0.20548189  0.40891808  0.58268155    -0.13500
C939        C  0.42340320  0.16106118  0.92833719     0.24500
C940        C  0.43332950  0.19061652  0.93929091    -0.23600
C941        C  0.44431306  0.19268032  0.97012495     0.19400
C942        C  0.44693356  0.16559930  0.98908445     0.24500
C943        C  0.43853195  0.13577355  0.97767863    -0.23500
C944        C  0.42592112  0.13381252  0.94748951     0.19400
F945        F  0.41687748  0.10543633  0.93640245    -0.13500
F946        F  0.41076955  0.15873556  0.89937999    -0.15800
F947        F  0.45959931  0.16820208  0.01801923    -0.15800
F948        F  0.45305373  0.22100544  0.98167328    -0.13500
C949        C  0.06200238  0.21918359  0.96596548     0.24500
C950        C  0.08341162  0.21808951  0.94102227    -0.23600
C951        C  0.09930064  0.19014612  0.93529857     0.19400
C952        C  0.09316102  0.16315787  0.95390998     0.24500
C953        C  0.07117379  0.16396998  0.97838963    -0.23500
C954        C  0.05591520  0.19221775  0.98465684     0.19400
F955        F  0.03395391  0.19304334  0.00788255    -0.13500
F956        F  0.04669206  0.24608851  0.97172652    -0.15800
F957        F  0.10756130  0.13599857  0.94726211    -0.15800
F958        F  0.12044673  0.18901241  0.91134412    -0.13500
C959        C  0.43369373  0.15443275  0.60112433     0.24500
C960        C  0.42642258  0.12392468  0.61285087    -0.23600
C961        C  0.39885535  0.11846163  0.63043787     0.19400
C962        C  0.37906841  0.14362887  0.63650671     0.24500
C963        C  0.38717550  0.17416653  0.62539707    -0.23500
C964        C  0.41416208  0.17905357  0.60687011     0.19400
F965        F  0.42168443  0.20800341  0.59425664    -0.13500
F966        F  0.45995558  0.16033848  0.58377587    -0.15800
F967        F  0.35224849  0.13834901  0.65301104    -0.15800
F968        F  0.39123527  0.08901507  0.64146226    -0.13500
C969        C  0.10597838  0.14122093  0.64254794     0.24500
C970        C  0.07744770  0.14489142  0.62735125    -0.23600
C971        C  0.06709637  0.17526055  0.62061398     0.19400
C972        C  0.08774939  0.20044730  0.62112689     0.24500
C973        C  0.11694508  0.19743536  0.63500451    -0.23500
C974        C  0.12542260  0.16778350  0.64717129     0.19400
F975        F  0.15334996  0.16415083  0.66071472    -0.13500
F976        F  0.11597455  0.11199855  0.65020280    -0.15800
F977        F  0.08029031  0.22689223  0.60463265    -0.15800
F978        F  0.03947542  0.17943053  0.60642230    -0.13500
C979        C  0.24262066  0.66222307  0.04595811     0.43400
N980        N  0.23707046  0.70150449  0.01348646     0.02300
C981        C  0.34512962  0.79707836  0.44161757    -0.05600
H982        H  0.34490939  0.80752755  0.06323945     0.07800
C983        C  0.23364144  0.84795257  0.04823684    -0.05900
Co984      Co  0.29097913  0.72797506  0.48879846     0.74200
N985        N  0.32238296  0.77871815  0.02842060    -0.25100
Co986      Co  0.30329611  0.80898978  0.99401227     0.74100
C987        C  0.25877850  0.85427526  0.06964555     0.43500
N988        N  0.19425466  0.78486767  0.01974999     0.01900
N989        N  0.27624070  0.83075181  0.02883426     0.02000
N990        N  0.33476723  0.74589845  0.43440042    -0.46000
H991        H  0.29576840  0.66751660  0.04281918     0.07800
N992        N  0.31935418  0.74786279  0.02561084     0.02300
N993        N  0.27702338  0.83825015  0.46250902     0.02000
C994        C  0.26743670  0.86641040  0.42054833     0.43600
N995        N  0.19267943  0.75423982  0.01517932    -0.24600
C996        C  0.27878213  0.68679293  0.42933074    -0.05500
N997        N  0.22162868  0.67907607  0.02986730    -0.45700
N998        N  0.29040362  0.85293392  0.43739537    -0.45900
C999        C  0.25110256  0.67663135  0.41236393     0.43400
N1000       N  0.31788345  0.75653365  0.45781291     0.02300
N1001       N  0.19560799  0.76299616  0.44782089    -0.24600
N1002       N  0.26728387  0.69994852  0.01682400    -0.25100
N1003       N  0.19389152  0.79342585  0.45225975     0.01900
H1004       H  0.17448121  0.73175480  0.41547103     0.07800
H1005       H  0.21515669  0.85919784  0.43043709     0.07800
N1006       N  0.32276629  0.78682702  0.46221500    -0.25100
N1007       N  0.24615356  0.83248563  0.02481020    -0.24700
N1008       N  0.23884827  0.71062238  0.44727671     0.02300
C1009       C  0.34551555  0.75323929  0.06840193     0.43700
C1010       C  0.17456665  0.74065667  0.03766970    -0.06000
N1011       N  0.24661497  0.83952024  0.46189318    -0.24700
H1012       H  0.20920482  0.85201214  0.05095058     0.07800
N1013       N  0.33263586  0.73207793  0.04883929    -0.46000
H1014       H  0.16974795  0.71561220  0.04015526     0.07800
C1015       C  0.16383623  0.78432788  0.41281609     0.43500
C1016       C  0.27308036  0.67604619  0.03721495    -0.05500
Co1017     Co  0.21274366  0.73239054  0.48145707     0.73800
N1018       N  0.17856566  0.79295829  0.04562643    -0.45700
C1019       C  0.35346310  0.76960340  0.42286233     0.43800
N1020       N  0.22742655  0.69230718  0.42537981    -0.45700
Co1021     Co  0.22245764  0.81302566  0.98839040     0.73900
C1022       C  0.23869884  0.85726434  0.43748078    -0.06000
C1023       C  0.33869699  0.78447363  0.05473587    -0.05600
N1024       N  0.26881275  0.70764299  0.45049996    -0.25100
N1025       N  0.28482141  0.84275603  0.05622686    -0.45900
H1026       H  0.35502275  0.82069251  0.44033189     0.07800
C1027       C  0.17961646  0.75562278  0.42242286    -0.06000
Cl1028     Cl  0.26026864  0.77041295  0.98753973    -0.49000
C1029       C  0.16521849  0.76607693  0.05824748     0.43500
H1030       H  0.30179588  0.67736031  0.42828346     0.07800
N1031       N  0.17416243  0.80686713  0.43262697    -0.45700
C1032       C  0.15312615  0.76103621  0.09141697     0.04100
C1033       C  0.13063018  0.78047818  0.10575731    -0.12100
C1034       C  0.11864877  0.77249862  0.13658206     0.01600
C1035       C  0.13212005  0.74710352  0.15287808    -0.10600
C1036       C  0.14452558  0.72310720  0.13502886     0.04100
C1037       C  0.15957061  0.73199780  0.10670652    -0.10000
H1038       H  0.12021747  0.79894604  0.09182948     0.09700
H1039       H  0.12236726  0.74007790  0.17581033     0.07200
H1040       H  0.17203957  0.71406043  0.09439652     0.07000
C1041       C  0.36130380  0.74371284  0.09835090     0.04100
C1042       C  0.35848557  0.71165350  0.10778416    -0.12100
C1043       C  0.37465131  0.69981053  0.13353286     0.01600
C1044       C  0.38784778  0.72112817  0.15402706    -0.10600
C1045       C  0.39719409  0.75121818  0.14242188     0.04100
C1046       C  0.38242545  0.76339806  0.11499014    -0.10000
H1047       H  0.34727698  0.69486058  0.09263143     0.09700
H1048       H  0.39936614  0.71122583  0.17442338     0.07200
H1049       H  0.38913789  0.78641707  0.10532334     0.07000
C1050       C  0.09176383  0.76643158  0.36703305     0.04100
C1051       C  0.11942761  0.78237881  0.37490794    -0.12100
C1052       C  0.13068004  0.77992053  0.40589920     0.01600
C1053       C  0.11349648  0.76221716  0.42871213    -0.10600
C1054       C  0.08880900  0.74305917  0.41985647     0.04100
C1055       C  0.07713466  0.74609494  0.38953206    -0.10000
H1056       H  0.13305828  0.79444496  0.35659258     0.09700
H1057       H  0.12281359  0.75870470  0.45212170     0.07200
H1058       H  0.05772019  0.73120987  0.38299503     0.07000
C1059       C  0.42526968  0.74760464  0.37555241     0.04100
C1060       C  0.43300973  0.72154092  0.39517369    -0.12100
C1061       C  0.41854923  0.71662242  0.42476487     0.01600
C1062       C  0.39734936  0.73808988  0.43521850    -0.10600
C1063       C  0.38546280  0.76077831  0.41468677     0.04100
C1064       C  0.40019011  0.76658025  0.38494415    -0.10000
H1065       H  0.45035731  0.70514502  0.38772226     0.09700
H1066       H  0.38635511  0.73384324  0.45819603     0.07200
H1067       H  0.39123718  0.78412699  0.36874530     0.07000
N1068       N  0.50627066  0.60987089  0.50107279    -0.35700
N1069       N  0.06057333  0.61613234  0.05344134    -0.56200
N1070       N  0.51120728  0.59704220  0.09880146    -0.35700
N1071       N  0.46382467  0.59208417  0.04828904    -0.56200
C1072       C  0.03360569  0.61690822  0.48787117     0.27900
C1073       C  0.48053423  0.61497286  0.48415050     0.27900
C1074       C  0.03569327  0.60973636  0.11991527     0.27900
C1075       C  0.48449753  0.59762651  0.11614060     0.27900
C1076       C  0.07305985  0.62854333  0.52671091     0.36500
C1077       C  0.07842695  0.61792422  0.07904997     0.36500
C1078       C  0.44149088  0.59253115  0.52267943     0.36500
C1079       C  0.44484550  0.58872600  0.07370122     0.36500
C1080       C  0.02519257  0.61198096  0.45709664    -0.20900
C1081       C  0.48829822  0.63271252  0.45712519    -0.20900
C1082       C  0.02256377  0.61760591  0.14869183    -0.20900
C1083       C  0.49116943  0.60614831  0.14669504    -0.20900
C1084       C  0.10004862  0.64284483  0.53626498    -0.22000
C1085       C  0.10770675  0.62965007  0.06979685    -0.22000
C1086       C  0.41173936  0.58283309  0.53102198    -0.22000
C1087       C  0.41425022  0.58954921  0.06388807    -0.22000
C1088       C  0.06088160  0.63219749  0.49643930    -0.17400
C1089       C  0.44956541  0.60909693  0.49453455    -0.17400
C1090       C  0.45373603  0.59709760  0.10449998    -0.17300
C1091       C  0.06666845  0.61842379  0.11059230    -0.17300
H1092       H  0.03925654  0.61621370  0.43606898     0.15600
H1093       H  0.47331618  0.64126944  0.43889098     0.15600
H1094       H  0.03402746  0.62842242  0.16830459     0.15600
H1095       H  0.47476803  0.60982784  0.16576010     0.15600
H1096       H  0.11628457  0.65722176  0.52220143     0.13800
H1097       H  0.12660955  0.63665496  0.08449594     0.13800
H1098       H  0.39159253  0.58322247  0.51623393     0.13800
H1099       H  0.39364312  0.58939002  0.07869826     0.13800
H1100       H  0.50759124  0.59784963  0.52251011     0.27100
H1101       H  0.51298770  0.59258458  0.07497297     0.27100
C1102       C  0.08032761  0.67132826  0.23571406     0.43400
N1103       N  0.04707403  0.70660339  0.24771074     0.02300
C1104       C  0.44159088  0.79165670  0.16447919    -0.05600
H1105       H  0.07485242  0.82923068  0.15530118     0.07800
C1106       C  0.06528212  0.84992301  0.26294128    -0.05900
Co1107     Co  0.50818006  0.72903783  0.19730030     0.74200
N1108       N  0.04177704  0.79251506  0.17091537    -0.25100
Co1109     Co  0.50264874  0.81094498  0.20261691     0.74100
C1110       C  0.07669796  0.86863809  0.23544492     0.43500
N1111       N  0.04463815  0.78159281  0.30175275     0.01900
N1112       N  0.03846789  0.83824127  0.22244686     0.02000
N1113       N  0.44938445  0.73962980  0.16151945    -0.46000
H1114       H  0.06856963  0.67673625  0.18312219     0.07800
N1115       N  0.04299534  0.76150345  0.16992630     0.02300
N1116       N  0.46838583  0.82958594  0.23232216     0.02000
C1117       C  0.42834806  0.85168011  0.25230436     0.43600
N1118       N  0.04533667  0.75073698  0.29974092    -0.24600
C1119       C  0.45561702  0.67925790  0.21217619    -0.05500
N1120       N  0.06692924  0.68664310  0.25959261    -0.45700
N1121       N  0.44259869  0.84459808  0.22465840    -0.45900
C1122       C  0.44339559  0.66358949  0.24090560     0.43400
N1123       N  0.47230714  0.75360091  0.17618563     0.02300
N1124       N  0.47706762  0.74206604  0.30725511    -0.24600
N1125       N  0.04624408  0.70647650  0.21670352    -0.25100
N1126       N  0.47526230  0.77274133  0.31068965     0.01900
H1127       H  0.45482208  0.70208051  0.33085887     0.07800
H1128       H  0.44456363  0.84069138  0.30281543     0.07800
N1129       N  0.46873433  0.78429085  0.17840033    -0.25100
N1130       N  0.04114670  0.83308988  0.25303808    -0.24700
N1131       N  0.47767295  0.69826504  0.25334508     0.02300
C1132       C  0.08544518  0.77705034  0.14594874     0.43700
C1133       C  0.06679045  0.73978095  0.31926269    -0.06000
N1134       N  0.47152871  0.82623845  0.26317786    -0.24700
H1135       H  0.07178820  0.85196151  0.28734365     0.07800
N1136       N  0.06811317  0.75175399  0.15565821    -0.46000
H1137       H  0.07081466  0.71513267  0.32441514     0.07800
C1138       C  0.44206726  0.75235250  0.34461862     0.43500
C1139       C  0.06642213  0.68469797  0.20691227    -0.05500
Co1140     Co  0.51107242  0.72262368  0.27881902     0.73800
N1141       N  0.06406211  0.79250540  0.32302674    -0.45700
C1142       C  0.42868105  0.76152245  0.15313031     0.43800
N1143       N  0.45843436  0.67641262  0.26528044    -0.45700
Co1144     Co  0.50744898  0.80218702  0.28506828     0.73900
C1145       C  0.44788328  0.83980009  0.27752175    -0.06000
C1146       C  0.06799571  0.80458837  0.15655029    -0.05600
N1147       N  0.47674392  0.70019608  0.22229053    -0.25100
N1148       N  0.05851865  0.86006569  0.21125826    -0.45900
H1149       H  0.43169889  0.81482668  0.16332074     0.07800
C1150       C  0.45702830  0.72735306  0.32729216    -0.06000
Cl1151     Cl  0.50726857  0.76618184  0.24097068    -0.49000
C1152       C  0.07948197  0.76749564  0.33474937     0.43500
H1153       H  0.45115876  0.67406153  0.18779762     0.07800
N1154       N  0.45495993  0.77998961  0.33327430    -0.45700
C1155       C  0.25239260  0.85992421  0.10349126     0.04100
C1156       C  0.22433459  0.84623567  0.11503743    -0.12100
C1157       C  0.20336401  0.86566703  0.12984232     0.01600
C1158       C  0.21548893  0.88974464  0.14783384    -0.10600
C1159       C  0.24579886  0.90146047  0.14175858     0.04100
C1160       C  0.26410843  0.88710726  0.11830125    -0.10000
H1161       H  0.21466143  0.82606432  0.10309177     0.09700
H1162       H  0.19933655  0.90328993  0.16150762     0.07200
H1163       H  0.28486403  0.89901971  0.10910851     0.07000
C1164       C  0.23587928  0.63103927  0.06180562     0.04100
C1165       C  0.20962730  0.61274780  0.05334209    -0.12100
C1166       C  0.20496864  0.58207734  0.06618028     0.01600
C1167       C  0.22644334  0.56983457  0.08668288    -0.10600
C1168       C  0.24915727  0.58923595  0.09957357     0.04100
C1169       C  0.25491345  0.61954379  0.08619318    -0.10000
H1170       H  0.19317842  0.62204331  0.03672629     0.09700
H1171       H  0.22219962  0.54630046  0.09669359     0.07200
H1172       H  0.27268531  0.63466811  0.09584273     0.07000
C1173       C  0.24582955  0.64506477  0.39903546     0.04100
C1174       C  0.22204012  0.62580815  0.41277242    -0.12100
C1175       C  0.21520558  0.59627857  0.40070526     0.01600
C1176       C  0.23341492  0.58489635  0.37647168    -0.10600
C1177       C  0.25446698  0.60479151  0.35964482     0.04100
C1178       C  0.26149629  0.63490142  0.37157202    -0.10000
H1179       H  0.20806605  0.63416965  0.43217736     0.09700
H1180       H  0.22780263  0.56167945  0.36772387     0.07200
H1181       H  0.27728878  0.65085189  0.35870516     0.07000
C1182       C  0.26070241  0.91512274  0.34530863     0.04100
C1183       C  0.23497877  0.89773760  0.33448393    -0.12100
C1184       C  0.22318846  0.87228941  0.35243175     0.01600
C1185       C  0.24448483  0.85545386  0.36999079    -0.10600
C1186       C  0.26736239  0.87291857  0.38564406     0.04100
C1187       C  0.27676592  0.90281722  0.37197243    -0.10000
H1188       H  0.21979264  0.90805952  0.31722679     0.09700
H1189       H  0.23607883  0.83344543  0.38091096     0.07200
H1190       H  0.29274864  0.91791761  0.38430972     0.07000
N1191       N  0.09783357  0.50199230  0.99320589    -0.35700
N1192       N  0.10217243  0.95804674  0.43365014    -0.56200
N1193       N  0.10476811  0.90985071  0.98695533    -0.35700
N1194       N  0.09291737  0.95615988  0.03687780    -0.56200
C1195       C  0.09243885  0.52141841  0.45861124     0.27900
C1196       C  0.08709096  0.51724728  0.01834733     0.27900
C1197       C  0.10841161  0.89011825  0.45790749     0.27900
C1198       C  0.10912620  0.89174286  0.01334660     0.27900
C1199       C  0.11040642  0.48543432  0.41839327     0.36500
C1200       C  0.11147023  0.93397020  0.41591815     0.36500
C1201       C  0.08799155  0.47720647  0.05999816     0.36500
C1202       C  0.09448358  0.93018509  0.05562218     0.36500
C1203       C  0.08205088  0.55059761  0.46727758    -0.20900
C1204       C  0.07967013  0.54755790  0.00946993    -0.20900
C1205       C  0.11624020  0.86015114  0.46834464    -0.20900
C1206       C  0.12246789  0.86368155  0.00479060    -0.20900
C1207       C  0.12227153  0.47870937  0.38900395    -0.22000
C1208       C  0.12431823  0.94598329  0.38766669    -0.22000
C1209       C  0.08821145  0.46769491  0.09125484    -0.22000
C1210       C  0.09438418  0.93900476  0.08707833    -0.22000
C1211       C  0.10907070  0.51581894  0.43074481    -0.17400
C1212       C  0.09414151  0.50813177  0.04918926    -0.17400
C1213       C  0.10628303  0.90112778  0.04538808    -0.17300
C1214       C  0.11648042  0.90254844  0.42724167    -0.17300
H1215       H  0.08234434  0.57204525  0.45295543     0.15600
H1216       H  0.07241450  0.56560218  0.02507501     0.15600
H1217       H  0.12614089  0.84173239  0.45446754     0.15600
H1218       H  0.12932269  0.84457571  0.02036708     0.15600
H1219       H  0.13063553  0.49475648  0.37052853     0.13800
H1220       H  0.13500137  0.93303638  0.36886902     0.13800
H1221       H  0.08990819  0.48255346  0.11156231     0.13800
H1222       H  0.09745573  0.92394572  0.10769102     0.13800
H1223       H  0.10900799  0.48061547  0.99427463     0.27100
H1224       H  0.09570798  0.93219460  0.98617877     0.27100
C1225       C  0.08633222  0.90161920  0.24041843     0.04100
C1226       C  0.11717956  0.91249723  0.23585918    -0.12100
C1227       C  0.12877312  0.93719372  0.25444595     0.01600
C1228       C  0.11018045  0.94798139  0.27933911    -0.10600
C1229       C  0.07943349  0.93737212  0.28286486     0.04100
C1230       C  0.06677358  0.91773863  0.26064223    -0.10000
H1231       H  0.13247900  0.90056780  0.21981730     0.09700
H1232       H  0.11973134  0.96370014  0.29660785     0.07200
H1233       H  0.04317410  0.90903106  0.26447622     0.07000
C1234       C  0.39020511  0.59273324  0.22771167     0.04100
C1235       C  0.40269946  0.57157092  0.24979580    -0.12100
C1236       C  0.42106486  0.58338311  0.27342422     0.01600
C1237       C  0.43526514  0.61288219  0.26937707    -0.10600
C1238       C  0.42805292  0.63237186  0.24352550     0.04100
C1239       C  0.40415847  0.62290785  0.22335101    -0.10000
H1240       H  0.39150176  0.54866065  0.25392757     0.09700
H1241       H  0.45031962  0.62131284  0.28767858     0.07200
H1242       H  0.39470305  0.63980839  0.20685058     0.07000
C1243       C  0.08953030  0.63817649  0.24171365     0.04100
C1244       C  0.07228302  0.62108595  0.26511936    -0.12100
C1245       C  0.08294096  0.59309929  0.27828380     0.01600
C1246       C  0.11012870  0.58042917  0.26636122    -0.10600
C1247       C  0.12775547  0.59632475  0.24232406     0.04100
C1248       C  0.11734771  0.62550572  0.23000103    -0.10000
H1249       H  0.05144549  0.63085384  0.27513997     0.09700
H1250       H  0.11863515  0.55905128  0.27736710     0.07200
H1251       H  0.13187273  0.63926842  0.21360555     0.07000
C1252       C  0.36003495  0.90799772  0.25573407     0.04100
C1253       C  0.38512765  0.89152153  0.24199681    -0.12100
C1254       C  0.39672077  0.86430254  0.25788215     0.01600
C1255       C  0.38230832  0.85405869  0.28648246    -0.10600
C1256       C  0.36349739  0.87441106  0.30281788     0.04100
C1257       C  0.34793006  0.89694696  0.28522320    -0.10000
H1258       H  0.39736454  0.90151441  0.22151113     0.09700
H1259       H  0.39183287  0.83469960  0.30000539     0.07200
H1260       H  0.33103544  0.91060019  0.29777573     0.07000
N1261       N  0.42723022  0.98604371  0.41144458    -0.35700
N1262       N  0.47230412  0.54179747  0.41819431    -0.56200
N1263       N  0.03987954  0.99244471  0.39955372    -0.35700
N1264       N  0.47130202  0.93885638  0.42857007    -0.56200
C1265       C  0.40857851  0.51349807  0.41436860     0.27900
C1266       C  0.40878395  0.96001367  0.41635038     0.27900
C1267       C  0.02941694  0.52293852  0.41276791     0.27900
C1268       C  0.02820713  0.96785625  0.41728843     0.27900
C1269       C  0.44725418  0.55794828  0.41000588     0.36500
C1270       C  0.99234224  0.56048665  0.39673436     0.36500
C1271       C  0.44832915  0.91877316  0.42085496     0.36500
C1272       C  0.99637607  0.91975861  0.41529160     0.36500
C1273       C  0.37761062  0.50476850  0.41510713    -0.20900
C1274       C  0.37806744  0.96854374  0.41585305    -0.20900
C1275       C  0.01656616  0.51515900  0.44225878    -0.20900
C1276       C  0.01617185  0.97867040  0.44541576    -0.20900
C1277       C  0.45631990  0.58770006  0.39827392    -0.22000
C1278       C  0.98197214  0.58781817  0.38272974    -0.22000
C1279       C  0.46032515  0.88977396  0.41345432    -0.22000
C1280       C  0.98987466  0.88924356  0.40621241    -0.22000
C1281       C  0.41929251  0.54287672  0.40179322    -0.17400
C1282       C  0.41838667  0.92859662  0.41297138    -0.17400
C1283       C  0.02260514  0.93753396  0.40513039    -0.17300
C1284       C  0.02303496  0.55066714  0.39547694    -0.17300
H1285       H  0.35827632  0.51994110  0.41067410     0.15600
H1286       H  0.35799488  0.95286873  0.41690771     0.15600
H1287       H  0.00534654  0.53097452  0.45826825     0.15600
H1288       H  0.00446818  0.96492399  0.46401930     0.15600
H1289       H  0.44181438  0.60531996  0.38764743     0.13800
H1290       H  0.99574786  0.60744382  0.37304036     0.13800
H1291       H  0.44788620  0.86962014  0.40440912     0.13800
H1292       H  0.00590908  0.87281230  0.39625899     0.13800
H1293       H  0.45091416  0.98647553  0.40657354     0.27100
H1294       H  0.04886826  0.99177117  0.37665506     0.27100
C1295       C  0.16036320  0.95084967  0.24952233     0.43400
N1296       N  0.19685268  0.98517022  0.25695567     0.02300
C1297       C  0.28549075  0.56371756  0.14195909    -0.05600
H1298       H  0.30640944  0.93915658  0.15806223     0.07800
C1299       C  0.34356550  0.96410478  0.27018353    -0.05900
Co1300     Co  0.21921846  0.51433997  0.19625506     0.74200
N1301       N  0.27577236  0.97458061  0.17605963    -0.25100
Co1302     Co  0.30028067  0.51095300  0.19368674     0.74100
C1303       C  0.35191288  0.94114490  0.24661342     0.43500
N1304       N  0.27772675  0.98876620  0.30490211     0.01900
N1305       N  0.32563475  0.97871106  0.22512866     0.02000
N1306       N  0.23447014  0.56796726  0.15071770    -0.46000
H1307       H  0.16666983  0.95556143  0.19559474     0.07800
N1308       N  0.24535099  0.97672882  0.17684138     0.02300
N1309       N  0.32551687  0.54810986  0.21377712     0.02000
C1310       C  0.35698862  0.58725594  0.22212645     0.43600
N1311       N  0.24726487  0.98984352  0.30492028    -0.24600
C1312       C  0.17179394  0.56973065  0.20763473    -0.05500
N1313       N  0.17534388  0.96740230  0.27171840    -0.45700
N1314       N  0.34707725  0.56681972  0.20012247    -0.45900
C1315       C  0.15947719  0.58476564  0.23616537     0.43400
N1316       N  0.24606726  0.54634203  0.16951358     0.02300
N1317       N  0.24517162  0.55815588  0.29427866    -0.24600
N1318       N  0.19618528  0.98234752  0.22608519    -0.25100
N1319       N  0.27533092  0.55791377  0.29693571     0.01900
H1320       H  0.20986950  0.58669913  0.31356277     0.07800
H1321       H  0.34180943  0.58786995  0.27424097     0.07800
N1322       N  0.27617928  0.54353351  0.16552530    -0.25100
N1323       N  0.32668980  0.98547163  0.25529524    -0.24700
N1324       N  0.19607372  0.55316795  0.24861834     0.02300
C1325       C  0.25346848  0.93266198  0.15459482     0.43700
C1326       C  0.23592877  0.96646007  0.32356134    -0.06000
N1327       N  0.32175916  0.55394589  0.24396386    -0.24700
H1328       H  0.34771800  0.96349718  0.29527330     0.07800
N1329       N  0.23138371  0.95222793  0.16444888    -0.46000
H1330       H  0.21158621  0.96106209  0.32739822     0.07800
C1331       C  0.26040359  0.59608842  0.32640528     0.43500
C1332       C  0.17423689  0.96085754  0.21909581    -0.05500
Co1333     Co  0.22008561  0.52120052  0.27590903     0.73800
N1334       N  0.28800400  0.96413820  0.32153211    -0.45700
C1335       C  0.25749757  0.58020761  0.13205863     0.43800
N1336       N  0.17574427  0.57270386  0.26024341    -0.45700
Co1337     Co  0.30252184  0.02179608  0.27621159     0.73900
C1338       C  0.33828616  0.57961230  0.25060752    -0.06000
C1339       C  0.28325418  0.94749806  0.16203102    -0.05600
N1340       N  0.19449458  0.55068326  0.21782696    -0.25100
N1341       N  0.33982655  0.95177625  0.21893809    -0.45900
H1342       H  0.30877909  0.56609326  0.13239063     0.07800
C1343       C  0.23419457  0.58258207  0.30960545    -0.06000
Cl1344     Cl  0.25977148  0.51696034  0.23526245    -0.49000
C1345       C  0.26274887  0.94889668  0.33439866     0.43500
H1346       H  0.16279608  0.57037977  0.18399575     0.07800
N1347       N  0.28530194  0.57929348  0.31711067    -0.45700
C1348       C  0.40299938  0.90616073  0.32974445     0.24500
C1349       C  0.37678034  0.88601494  0.33250177    -0.23600
C1350       C  0.36443174  0.87832987  0.36271254     0.19100
C1351       C  0.37781024  0.89154390  0.38965911     0.24500
C1352       C  0.40373114  0.91206328  0.38632452    -0.23500
C1353       C  0.41634205  0.91862774  0.35617950     0.19400
F1354       F  0.44184320  0.93754324  0.35230171    -0.13500
F1355       F  0.41573570  0.91421604  0.30111825    -0.15800
F1356       F  0.36561585  0.88448667  0.41870688    -0.15800
F1357       F  0.33967521  0.85830806  0.36603004    -0.13500
C1358       C  0.03011337  0.54811287  0.33656777     0.24500
C1359       C  0.04042339  0.55943906  0.36570565    -0.23600
C1360       C  0.06400856  0.58261785  0.36553535     0.19400
C1361       C  0.07818571  0.59297285  0.33701831     0.24500
C1362       C  0.06867349  0.58065737  0.30816854    -0.23500
C1363       C  0.04423986  0.55847016  0.30809729     0.19400
F1364       F  0.03336249  0.54771178  0.28042511    -0.13500
F1365       F  0.00523453  0.52823984  0.33563460    -0.15800
F1366       F  0.10116678  0.61523521  0.33747786    -0.15800
F1367       F  0.07343955  0.59517535  0.39294199    -0.13500
C1368       C  0.43176321  0.54267450  0.31443922     0.24500
C1369       C  0.41688127  0.57013487  0.30541950    -0.23600
C1370       C  0.39775182  0.58548884  0.32718638     0.19400
C1371       C  0.39512568  0.57438524  0.35840805     0.24500
C1372       C  0.41216780  0.54832377  0.36813101    -0.23500
C1373       C  0.42984667  0.53212815  0.34570133     0.19400
F1374       F  0.44832893  0.50844196  0.35496536    -0.13500
F1375       F  0.44999919  0.52754597  0.29357660    -0.15800
F1376       F  0.37854936  0.59073439  0.37971460    -0.15800
F1377       F  0.38280711  0.61204995  0.31844924    -0.13500
C1378       C  0.07385194  0.91574466  0.33724457     0.24500
C1379       C  0.06382786  0.93702695  0.31380335    -0.23600
C1380       C  0.03582442  0.95242004  0.31818753     0.19400
C1381       C  0.02035842  0.94974339  0.34731650     0.24500
C1382       C  0.03334175  0.93242529  0.37235508    -0.23500
C1383       C  0.05816740  0.91305611  0.36623418     0.19400
F1384       F  0.06658755  0.89136167  0.38814238    -0.13500
F1385       F  0.09836966  0.89713743  0.33158446    -0.15800
F1386       F  0.99412531  0.96600997  0.35213550    -0.15800
F1387       F  0.02384886  0.97021076  0.29452161    -0.13500
C1388       C  0.16641292  0.86189851  0.36599821     0.24500
C1389       C  0.19421973  0.87883276  0.37028158    -0.23600
C1390       C  0.19564058  0.90085559  0.39464866     0.19400
C1391       C  0.17168807  0.90301310  0.41627378     0.24500
C1392       C  0.14325862  0.88791570  0.41114595    -0.23500
C1393       C  0.14055678  0.86714805  0.38581883     0.19400
F1394       F  0.11307413  0.85279618  0.37988217    -0.13500
F1395       F  0.16404704  0.84172974  0.34182264    -0.15800
F1396       F  0.17494171  0.92318056  0.44049136    -0.15800
F1397       F  0.22101886  0.91928524  0.39916493    -0.13500
C1398       C  0.15841303  0.54276845  0.44493281     0.24500
C1399       C  0.13488757  0.53863424  0.42275587    -0.23600
C1400       C  0.13778693  0.55450534  0.39348341     0.19400
C1401       C  0.16322624  0.57469491  0.38700734     0.24500
C1402       C  0.18647602  0.57877210  0.40952847    -0.23500
C1403       C  0.18374307  0.56288682  0.43863904     0.19400
F1404       F  0.20651852  0.56529326  0.46014706    -0.13500
F1405       F  0.15794175  0.52535400  0.47191191    -0.15800
F1406       F  0.16574669  0.58956146  0.35834896    -0.15800
F1407       F  0.11714534  0.54906188  0.37058518    -0.13500
C1408       C  0.15151400  0.51497357  0.04491754     0.24500
C1409       C  0.12346354  0.52325557  0.05966610    -0.23600
C1410       C  0.12346301  0.54914510  0.07947087     0.19400
C1411       C  0.15023908  0.56827706  0.08165242     0.24500
C1412       C  0.17631695  0.56307390  0.06235950    -0.23500
C1413       C  0.17742045  0.53512281  0.04562311     0.19400
F1414       F  0.20375321  0.52726754  0.03009267    -0.13500
F1415       F  0.15343481  0.48800262  0.02855482    -0.15800
F1416       F  0.15165979  0.59062177  0.10384485    -0.15800
F1417       F  0.09790710  0.55524776  0.09702270    -0.13500
C1418       C  0.14738108  0.86009105  0.11370839     0.24500
C1419       C  0.17679101  0.87449281  0.11016687    -0.23600
C1420       C  0.18227792  0.89669263  0.08537867     0.19400
C1421       C  0.15970340  0.90288890  0.06355638     0.24500
C1422       C  0.13032828  0.88850278  0.06664757    -0.23500
C1423       C  0.12396861  0.86731422  0.09210458     0.19400
F1424       F  0.09514724  0.85456702  0.09639796    -0.13500
F1425       F  0.14127842  0.84005854  0.13850613    -0.15800
F1426       F  0.16613634  0.92412256  0.03972219    -0.15800
F1427       F  0.20996704  0.91212806  0.08177581    -0.13500
C1428       C  0.41181174  0.65817732  0.43399343     0.24500
C1429       C  0.42218354  0.68777927  0.44444174    -0.23600
C1430       C  0.43120618  0.69055586  0.47588934     0.19400
C1431       C  0.43319850  0.66383724  0.49538147     0.24500
C1432       C  0.42803558  0.63364342  0.48320779    -0.23500
C1433       C  0.41438874  0.63118600  0.45356056     0.19400
F1434       F  0.40600391  0.60252157  0.44282203    -0.13500
F1435       F  0.39989693  0.65540351  0.40476621    -0.15800
F1436       F  0.44519266  0.66699540  0.52450273    -0.15800
F1437       F  0.43975575  0.71905135  0.48720031    -0.13500
C1438       C  0.05574034  0.71376890  0.45983354     0.24500
C1439       C  0.08128855  0.71471604  0.43923248    -0.23600
C1440       C  0.10092079  0.68869101  0.43782560     0.19400
C1441       C  0.09494940  0.66182456  0.45685220     0.24500
C1442       C  0.06933812  0.66085337  0.47743086    -0.23500
C1443       C  0.04991898  0.68706814  0.47900056     0.19400
F1444       F  0.02523744  0.68664198  0.49917942    -0.13500
F1445       F  0.03664200  0.73867577  0.46145914    -0.15800
F1446       F  0.11385064  0.63678671  0.45506817    -0.15800
F1447       F  0.12572188  0.68934039  0.41776283    -0.13500
C1448       C  0.44136958  0.65299297  0.10567076     0.24500
C1449       C  0.43420721  0.62241347  0.11718659    -0.23600
C1450       C  0.40677106  0.61670700  0.13496316     0.19400
C1451       C  0.38637553  0.64156975  0.14032155     0.24500
C1452       C  0.39357762  0.67192705  0.12789099    -0.23500
C1453       C  0.42128431  0.67723917  0.11065795     0.19400
F1454       F  0.42877472  0.70620764  0.09810614    -0.13500
F1455       F  0.46731731  0.65897236  0.08780903    -0.15800
F1456       F  0.35964461  0.63600428  0.15691053    -0.15800
F1457       F  0.39940361  0.58716171  0.14595266    -0.13500
C1458       C  0.11041181  0.63930023  0.14409738     0.24500
C1459       C  0.08203432  0.64361650  0.12874731    -0.23600
C1460       C  0.07386876  0.67396213  0.11890658     0.19400
C1461       C  0.09548952  0.69822976  0.11886348     0.24500
C1462       C  0.12409501  0.69466189  0.13371397    -0.23500
C1463       C  0.13134588  0.66504935  0.14695551     0.19400
F1464       F  0.15932293  0.66057094  0.16015088    -0.13500
F1465       F  0.11871085  0.61001750  0.15372205    -0.15800
F1466       F  0.08912967  0.72469614  0.10187025    -0.15800
F1467       F  0.04684575  0.67872415  0.10375913    -0.13500
C1468       C  0.23609854  0.66289223  0.54798302     0.43400
N1469       N  0.23116156  0.70193914  0.51523815     0.02300
C1470       C  0.35125969  0.79598686  0.93921687    -0.05600
H1471       H  0.33987791  0.80756682  0.56491831     0.07800
C1472       C  0.22596646  0.84422143  0.55276228    -0.05900
Co1473     Co  0.29692544  0.72749956  0.98696712     0.74200
N1474       N  0.31639331  0.77894447  0.53066101    -0.25100
Co1475     Co  0.29731549  0.80942430  0.49736687     0.74100
C1476       C  0.25032596  0.85004804  0.57503664     0.43500
N1477       N  0.18762744  0.78426646  0.52135788     0.01900
N1478       N  0.26959996  0.83001210  0.53296645     0.02000
N1479       N  0.34256973  0.74410763  0.93391369    -0.46000
H1480       H  0.28934156  0.66766298  0.54526635     0.07800
N1481       N  0.31339249  0.74817627  0.52739972     0.02300
N1482       N  0.28255716  0.83736888  0.95848965     0.02000
C1483       C  0.27251773  0.86665614  0.91740123     0.43600
N1484       N  0.18623735  0.75378753  0.51618105    -0.24600
C1485       C  0.28399428  0.68707270  0.92702575    -0.05500
N1486       N  0.21542300  0.67987499  0.53169955    -0.45700
N1487       N  0.29568103  0.85259074  0.93353450    -0.45900
C1488       C  0.25615773  0.67767355  0.90989900     0.43400
N1489       N  0.32452225  0.75529149  0.95611876     0.02300
N1490       N  0.20032593  0.76262762  0.94625211    -0.24600
N1491       N  0.26134850  0.70020214  0.51874455    -0.25100
N1492       N  0.19896784  0.79312640  0.95030044     0.01900
H1493       H  0.17806441  0.73121486  0.91472090     0.07800
H1494       H  0.22026546  0.86076178  0.92805711     0.07800
N1495       N  0.32871296  0.78582185  0.95956891    -0.25100
N1496       N  0.23952647  0.83115868  0.52849216    -0.24700
N1497       N  0.24439999  0.71107286  0.94545729     0.02300
C1498       C  0.34049818  0.75329664  0.56933687     0.43700
C1499       C  0.16713987  0.73980705  0.53753790    -0.06000
N1500       N  0.25210927  0.83896279  0.95829136    -0.24700
H1501       H  0.20133788  0.84691524  0.55522120     0.07800
N1502       N  0.32734461  0.73220362  0.54995882    -0.46000
H1503       H  0.16205687  0.71476558  0.53912863     0.07800
C1504       C  0.16799398  0.78397058  0.91146307     0.43500
C1505       C  0.26678854  0.67635776  0.53937573    -0.05500
Co1506     Co  0.21834240  0.73234502  0.97993786     0.73800
N1507       N  0.17085820  0.79184465  0.54671265    -0.45700
C1508       C  0.36055143  0.76806691  0.92186506     0.43800
N1509       N  0.23279006  0.69364891  0.92302440    -0.45700
Co1510     Co  0.21652472  0.81288492  0.49109549     0.73900
C1511       C  0.24393121  0.85744688  0.93445693    -0.06000
C1512       C  0.33332203  0.78458062  0.55647120    -0.05600
N1513       N  0.27434025  0.70760601  0.94863094    -0.25100
N1514       N  0.27719309  0.84051430  0.56139007    -0.45900
H1515       H  0.36089554  0.81970237  0.93761202     0.07800
C1516       C  0.18363160  0.75512829  0.92127800    -0.06000
Cl1517     Cl  0.25438882  0.77060013  0.48989554    -0.49000
C1518       C  0.15699954  0.76474572  0.55826057     0.43500
H1519       H  0.30690591  0.67742916  0.92565691     0.07800
N1520       N  0.17905919  0.80655922  0.93082491    -0.45700
C1521       C  0.14439927  0.75893121  0.59112231     0.04100
C1522       C  0.12278807  0.77881036  0.60612190    -0.12100
C1523       C  0.11167733  0.77104412  0.63726944     0.01600
C1524       C  0.12515891  0.74543437  0.65314763    -0.10600
C1525       C  0.13617983  0.72107991  0.63496682     0.04100
C1526       C  0.14994888  0.72935727  0.60580508    -0.10000
H1527       H  0.11247630  0.79760311  0.59259152     0.09700
H1528       H  0.11628526  0.73879398  0.67653596     0.07200
H1529       H  0.16119829  0.71098870  0.59295291     0.07000
C1530       C  0.35764448  0.74367503  0.59803513     0.04100
C1531       C  0.35528654  0.71156968  0.60710853    -0.12100
C1532       C  0.37321499  0.69937719  0.63119211     0.01600
C1533       C  0.38858564  0.72030910  0.65055680    -0.10600
C1534       C  0.39642000  0.75091872  0.63911984     0.04100
C1535       C  0.37959764  0.76336642  0.61333592    -0.10000
H1536       H  0.34276865  0.69500856  0.59273773     0.09700
H1537       H  0.40171383  0.71008242  0.66965981     0.07200
H1538       H  0.38536641  0.78663097  0.60366392     0.07000
C1539       C  0.09405203  0.76604490  0.86827246     0.04100
C1540       C  0.12200835  0.78231586  0.87490044    -0.12100
C1541       C  0.13451171  0.78005252  0.90547614     0.01600
C1542       C  0.11790379  0.76307524  0.92916914    -0.10600
C1543       C  0.09327904  0.74340142  0.92143618     0.04100
C1544       C  0.08066274  0.74559668  0.89144570    -0.10000
H1545       H  0.13480015  0.79455357  0.85603589     0.09700
H1546       H  0.12791678  0.76013547  0.95234204     0.07200
H1547       H  0.06122968  0.73030981  0.88584177     0.07000
C1548       C  0.43112683  0.75072593  0.87152684     0.04100
C1549       C  0.44223714  0.72572432  0.89066890    -0.12100
C1550       C  0.42959390  0.71944051  0.92089339     0.01600
C1551       C  0.40655787  0.73853593  0.93226599    -0.10600
C1552       C  0.39249571  0.76065080  0.91257369     0.04100
C1553       C  0.40542359  0.76773298  0.88238144    -0.10000
H1554       H  0.46040932  0.71084273  0.88206400     0.09700
H1555       H  0.39643672  0.73296952  0.95539516     0.07200
H1556       H  0.39437328  0.78447116  0.86677414     0.07000
N1557       N  0.51166052  0.61014602  0.00307561    -0.35700
N1558       N  0.05835153  0.61311776  0.55117360    -0.56200
N1559       N  0.50517698  0.59059467  0.60049432    -0.35700
N1560       N  0.45964346  0.59189452  0.54822274    -0.56200
C1561       C  0.04041414  0.62005478  0.98564334     0.27900
C1562       C  0.48756858  0.60581425  0.98388086     0.27900
C1563       C  0.03513538  0.60095711  0.61829790     0.27900
C1564       C  0.47807132  0.59445015  0.61642077     0.27900
C1565       C  0.07812788  0.62711636  0.02869218     0.36500
C1566       C  0.07507134  0.61906982  0.57690941     0.36500
C1567       C  0.44563183  0.59729998  0.02311863     0.36500
C1568       C  0.44180830  0.58212923  0.57306159     0.36500
C1569       C  0.03168673  0.62517794  0.95472574    -0.20900
C1570       C  0.49746782  0.60901568  0.95288577    -0.20900
C1571       C  0.02595695  0.59596348  0.64953008    -0.20900
C1572       C  0.48397705  0.60684235  0.64574564    -0.20900
C1573       C  0.10733168  0.63556386  0.03813052    -0.22000
C1574       C  0.10159771  0.63662766  0.56788919    -0.22000
C1575       C  0.41487483  0.59579595  0.03200836    -0.22000
C1576       C  0.41198047  0.57587945  0.56286073    -0.22000
C1577       C  0.06737002  0.63340305  0.99827923    -0.17400
C1578       C  0.45659322  0.60830302  0.99338361    -0.17400
C1579       C  0.44790977  0.59243363  0.60368200    -0.17300
C1580       C  0.06421000  0.61482859  0.60878241    -0.17300
H1581       H  0.04465756  0.63704011  0.93577383     0.15600
H1582       H  0.48308585  0.61069583  0.93261100     0.15600
H1583       H  0.04023379  0.59833114  0.67009417     0.15600
H1584       H  0.46712266  0.61347279  0.66341867     0.15600
H1585       H  0.12590066  0.64629735  0.02388998     0.13800
H1586       H  0.11940290  0.64601550  0.58277848     0.13800
H1587       H  0.39516449  0.60040879  0.01733395     0.13800
H1588       H  0.39172802  0.57067972  0.57754868     0.13800
H1589       H  0.51016389  0.61383979  0.02704319     0.27100
H1590       H  0.50770683  0.58264540  0.57760812     0.27100
C1591       C  0.07556708  0.66778149  0.74023405     0.43400
N1592       N  0.04428915  0.70506358  0.75178542     0.02300
C1593       C  0.44103840  0.79256856  0.65827010    -0.05600
H1594       H  0.06940603  0.82835864  0.65779327     0.07800
C1595       C  0.06204216  0.84948150  0.76886173    -0.05900
Co1596     Co  0.50794600  0.73075220  0.69060693     0.74200
N1597       N  0.03727776  0.79181980  0.67569801    -0.25100
Co1598     Co  0.50278580  0.81283819  0.69472219     0.74100
C1599       C  0.07289186  0.86941024  0.74213110     0.43500
N1600       N  0.04303604  0.78064471  0.80594265     0.01900
N1601       N  0.03547089  0.83835500  0.72796752     0.02000
N1602       N  0.44947464  0.74067468  0.65533377    -0.46000
H1603       H  0.06211604  0.67174161  0.68778210     0.07800
N1604       N  0.03806760  0.76073784  0.67447739     0.02300
N1605       N  0.46803539  0.83239877  0.72425061     0.02000
C1606       C  0.42808464  0.85494232  0.74469776     0.43600
N1607       N  0.04409548  0.74985676  0.80350186    -0.24600
C1608       C  0.45439473  0.68241090  0.70495639    -0.05500
N1609       N  0.06345238  0.68446570  0.76376849    -0.45700
N1610       N  0.44198352  0.84728532  0.71686873    -0.45900
C1611       C  0.44107751  0.66710762  0.73331218     0.43400
N1612       N  0.47263606  0.75510513  0.66903588     0.02300
N1613       N  0.47674698  0.74561118  0.79968318    -0.24600
N1614       N  0.04243524  0.70415502  0.72085716    -0.25100
N1615       N  0.47535929  0.77631904  0.80321857     0.01900
H1616       H  0.45651626  0.70563444  0.82491423     0.07800
H1617       H  0.44525191  0.84465091  0.79493605     0.07800
N1618       N  0.46880085  0.78574380  0.67115755    -0.25100
N1619       N  0.03833883  0.83248366  0.75842195    -0.24700
N1620       N  0.47653607  0.70068717  0.74645964     0.02300
C1621       C  0.07897300  0.77604418  0.64776004     0.43700
C1622       C  0.06675360  0.73917689  0.82173313    -0.06000
N1623       N  0.47150693  0.82956477  0.75511024    -0.24700
H1624       H  0.06831965  0.85102997  0.79337399     0.07800
N1625       N  0.06197610  0.75087001  0.65836085    -0.46000
H1626       H  0.07159393  0.71459487  0.82624954     0.07800
C1627       C  0.44445429  0.75580540  0.83916493     0.43500
C1628       C  0.06124676  0.68084975  0.71127362    -0.05500
Co1629     Co  0.51030247  0.72553466  0.77188193     0.73800
N1630       N  0.06345939  0.79176838  0.82613381    -0.45700
C1631       C  0.42814788  0.76208615  0.64777497     0.43800
N1632       N  0.45643357  0.67928723  0.75801341    -0.45700
Co1633     Co  0.50740433  0.80568629  0.77715702     0.73900
C1634       C  0.44813564  0.84343946  0.76961535    -0.06000
C1635       C  0.06264185  0.80371261  0.65972589    -0.05600
N1636       N  0.47600398  0.70260808  0.71542354    -0.25100
N1637       N  0.05481100  0.86130399  0.71754606    -0.45900
H1638       H  0.43062089  0.81550000  0.65761224     0.07800
C1639       C  0.45792916  0.73087667  0.82076877    -0.06000
Cl1640     Cl  0.50706076  0.76875590  0.73363850    -0.49000
C1641       C  0.07994443  0.76701379  0.83672898     0.43500
H1642       H  0.45014393  0.67744639  0.68048878     0.07800
N1643       N  0.45668121  0.78349672  0.82719852    -0.45700
C1644       C  0.24285147  0.85660625  0.60861750     0.04100
C1645       C  0.21377807  0.84426808  0.61898437    -0.12100
C1646       C  0.19234864  0.86518590  0.63081747     0.01600
C1647       C  0.20383433  0.89031162  0.64793920    -0.10600
C1648       C  0.23510395  0.90021051  0.64443012     0.04100
C1649       C  0.25447365  0.88398096  0.62320154    -0.10000
H1650       H  0.20443905  0.82362302  0.60756072     0.09700
H1651       H  0.18720522  0.90536579  0.65913913     0.07200
H1652       H  0.27638185  0.89451278  0.61538032     0.07000
C1653       C  0.22861900  0.63155381  0.56297581     0.04100
C1654       C  0.20275415  0.61381654  0.55266175    -0.12100
C1655       C  0.19637195  0.58347243  0.56536452     0.01600
C1656       C  0.21543318  0.57108013  0.58823426    -0.10600
C1657       C  0.23882694  0.58944532  0.60145800     0.04100
C1658       C  0.24627742  0.61942490  0.58811865    -0.10000
H1659       H  0.18781574  0.62335186  0.53470282     0.09700
H1660       H  0.20971158  0.54786886  0.59829553     0.07200
H1661       H  0.26430912  0.63383951  0.59829718     0.07000
C1662       C  0.24998571  0.64594277  0.89763365     0.04100
C1663       C  0.22578200  0.62783347  0.91217298    -0.12100
C1664       C  0.21753549  0.59837093  0.90090412     0.01600
C1665       C  0.23483865  0.58594012  0.87648038    -0.10600
C1666       C  0.25689280  0.60457641  0.85931720     0.04100
C1667       C  0.26517363  0.63457818  0.87052265    -0.10000
H1668       H  0.21258598  0.63703480  0.93172376     0.09700
H1669       H  0.22827047  0.56275505  0.86830529     0.07200
H1670       H  0.28151143  0.64962726  0.85727536     0.07000
C1671       C  0.26535978  0.91835900  0.84418395     0.04100
C1672       C  0.23947727  0.90158175  0.83285106    -0.12100
C1673       C  0.22716520  0.87629240  0.85064319     0.01600
C1674       C  0.24843677  0.85827217  0.86693130    -0.10600
C1675       C  0.27192457  0.87463804  0.88282826     0.04100
C1676       C  0.28153670  0.90491177  0.87023787    -0.10000
H1677       H  0.22433298  0.91265759  0.81600633     0.09700
H1678       H  0.23977623  0.83602952  0.87711119     0.07200
H1679       H  0.29764998  0.91940154  0.88309957     0.07000
N1680       N  0.09134201  0.50136442  0.48371264    -0.35700
N1681       N  0.11165275  0.96225370  0.93989613    -0.56200
N1682       N  0.09729575  0.90638390  0.48271304    -0.35700
N1683       N  0.08238928  0.95167010  0.53201920    -0.56200
C1684       C  0.09805549  0.52247572  0.96846621     0.27900
C1685       C  0.08089363  0.51739794  0.50846438     0.27900
C1686       C  0.11778292  0.89464595  0.96231431     0.27900
C1687       C  0.10052732  0.88789041  0.50908821     0.27900
C1688       C  0.11539403  0.48727392  0.92729072     0.36500
C1689       C  0.11758618  0.93835944  0.92067818     0.36500
C1690       C  0.08307585  0.47804477  0.55129531     0.36500
C1691       C  0.08695955  0.92657016  0.55128794     0.36500
C1692       C  0.08679379  0.55109963  0.97778028    -0.20900
C1693       C  0.07453918  0.54785217  0.49890560    -0.20900
C1694       C  0.12787206  0.86551167  0.97280649    -0.20900
C1695       C  0.11152199  0.85883806  0.50047097    -0.20900
C1696       C  0.12720911  0.48068077  0.89780655    -0.22000
C1697       C  0.12619845  0.95050829  0.89086077    -0.22000
C1698       C  0.08550973  0.46978660  0.58274933    -0.22000
C1699       C  0.08816332  0.93628107  0.58242357    -0.22000
C1700       C  0.11408153  0.51758203  0.94006539    -0.17400
C1701       C  0.08779310  0.50886606  0.53953866    -0.17400
C1702       C  0.09867147  0.89750097  0.54108369    -0.17300
C1703       C  0.12447518  0.90734708  0.93144061    -0.17300
H1704       H  0.08590558  0.57265315  0.96372570     0.15600
H1705       H  0.06832495  0.56665959  0.51410648     0.15600
H1706       H  0.13949565  0.84802229  0.95909589     0.15600
H1707       H  0.11717173  0.83927266  0.51603784     0.15600
H1708       H  0.13622204  0.49662519  0.87958212     0.13800
H1709       H  0.13440398  0.93759592  0.87081515     0.13800
H1710       H  0.08725237  0.48550925  0.60238785     0.13800
H1711       H  0.09309769  0.92214195  0.60322089     0.13800
H1712       H  0.10218760  0.47987884  0.48535750     0.27100
H1713       H  0.09066082  0.92961086  0.48195281     0.27100
C1714       C  0.08297991  0.90209452  0.74880669     0.04100
C1715       C  0.11383348  0.91301385  0.74381120    -0.12100
C1716       C  0.12660854  0.93617598  0.76369422     0.01600
C1717       C  0.10925226  0.94524190  0.79012385    -0.10600
C1718       C  0.07852656  0.93476964  0.79422949     0.04100
C1719       C  0.06463483  0.91676908  0.77133340    -0.10000
H1720       H  0.12825436  0.90230585  0.72610239     0.09700
H1721       H  0.11962685  0.95988390  0.80784561     0.07200
H1722       H  0.04107116  0.90818340  0.77564877     0.07000
C1723       C  0.38684008  0.59642008  0.71955426     0.04100
C1724       C  0.40259574  0.57375466  0.73720119    -0.12100
C1725       C  0.42285833  0.58390919  0.75996581     0.01600
C1726       C  0.43647884  0.61381576  0.75714985    -0.10600
C1727       C  0.42592673  0.63557643  0.73473136     0.04100
C1728       C  0.39952427  0.62749088  0.71700200    -0.10000
H1729       H  0.39233464  0.55027024  0.74028876     0.09700
H1730       H  0.45324883  0.62090744  0.77446517     0.07200
H1731       H  0.38775943  0.64560796  0.70376675     0.07000
C1732       C  0.08580747  0.63504521  0.74785419     0.04100
C1733       C  0.07034252  0.61930318  0.77350092    -0.12100
C1734       C  0.08260506  0.59276880  0.78830210     0.01600
C1735       C  0.10986641  0.58035335  0.77631320    -0.10600
C1736       C  0.12569005  0.59462252  0.75011875     0.04100
C1737       C  0.11348954  0.62219671  0.73577782    -0.10000
H1738       H  0.04949512  0.62899483  0.78356608     0.09700
H1739       H  0.11943428  0.56003549  0.78833931     0.07200
H1740       H  0.12656455  0.63476207  0.71729428     0.07000
C1741       C  0.35797398  0.90972958  0.74996579     0.04100
C1742       C  0.38339812  0.89402704  0.73571719    -0.12100
C1743       C  0.39613045  0.86705718  0.75116142     0.01600
C1744       C  0.38248171  0.85643965  0.78011095    -0.10600
C1745       C  0.36283600  0.87584584  0.79677911     0.04100
C1746       C  0.34660127  0.89823885  0.77957822    -0.10000
H1747       H  0.39494230  0.90442937  0.71502437     0.09700
H1748       H  0.39275796  0.83737225  0.79341761     0.07200
H1749       H  0.32968150  0.91159253  0.79246627     0.07000
N1750       N  0.42318750  0.99050381  0.90569723    -0.35700
N1751       N  0.47238927  0.53957390  0.90451334    -0.56200
N1752       N  0.04332392  0.99428102  0.90946337    -0.35700
N1753       N  0.46829432  0.94283687  0.91853391    -0.56200
C1754       C  0.40789524  0.51276044  0.90045501     0.27900
C1755       C  0.40464429  0.96433828  0.90980238     0.27900
C1756       C  0.02861401  0.52273435  0.92377261     0.27900
C1757       C  0.03222661  0.97041677  0.92867771     0.27900
C1758       C  0.44823886  0.55566353  0.89370931     0.36500
C1759       C  0.99134741  0.55905749  0.90439779     0.36500
C1760       C  0.44447720  0.92264289  0.91424570     0.36500
C1761       C  0.00066508  0.92154780  0.92936392     0.36500
C1762       C  0.37666852  0.50508746  0.90117181    -0.20900
C1763       C  0.37399420  0.97286280  0.90743810    -0.20900
C1764       C  0.01468124  0.51544609  0.95285933    -0.20900
C1765       C  0.02096051  0.98252945  0.95651610    -0.20900
C1766       C  0.45856756  0.58402616  0.87956514    -0.22000
C1767       C  0.98151894  0.58443295  0.88657372    -0.22000
C1768       C  0.45568382  0.89322329  0.90677866    -0.22000
C1769       C  0.99490477  0.89055416  0.92113971    -0.22000
C1770       C  0.41967587  0.54112861  0.88663879    -0.17400
C1771       C  0.41425605  0.93262723  0.90727716    -0.17400
C1772       C  0.02663788  0.93933029  0.91827235    -0.17300
C1773       C  0.02228755  0.54967018  0.90517786    -0.17300
H1774       H  0.35791078  0.52066573  0.89565058     0.15600
H1775       H  0.35394883  0.95715067  0.90750755     0.15600
H1776       H  0.00231844  0.53139563  0.96783075     0.15600
H1777       H  0.00958822  0.96962038  0.97589823     0.15600
H1778       H  0.44500886  0.60134785  0.86722140     0.13800
H1779       H  0.99562143  0.60324621  0.87575285     0.13800
H1780       H  0.44230446  0.87278750  0.89979642     0.13800
H1781       H  0.01160993  0.87398743  0.91268351     0.13800
H1782       H  0.44705367  0.99110556  0.90245524     0.27100
H1783       H  0.05147572  0.99258544  0.88633785     0.27100
C1784       C  0.15774691  0.95078021  0.75760872     0.43400
N1785       N  0.19401595  0.98609141  0.76270351     0.02300
C1786       C  0.27750452  0.56417788  0.64193522    -0.05600
H1787       H  0.29686156  0.93839946  0.65641536     0.07800
C1788       C  0.34157096  0.96593266  0.76491644    -0.05900
Co1789     Co  0.21549852  0.51265511  0.69961928     0.74200
N1790       N  0.26753891  0.97401093  0.67622959    -0.25100
Co1791     Co  0.29649299  0.51148764  0.69214026     0.74100
C1792       C  0.34876300  0.94273115  0.74115428     0.43500
N1793       N  0.27860933  0.99176879  0.80365796     0.01900
N1794       N  0.32111209  0.98000293  0.72085993     0.02000
N1795       N  0.22649014  0.56569268  0.65249683    -0.46000
H1796       H  0.16164763  0.95435817  0.70354797     0.07800
N1797       N  0.23721648  0.97569673  0.67970534     0.02300
N1798       N  0.32241819  0.54894908  0.71108465     0.02000
C1799       C  0.35325433  0.58938082  0.71745898     0.43600
N1800       N  0.24824857  0.99278415  0.80676297    -0.24600
C1801       C  0.16796162  0.56745899  0.71339542    -0.05500
N1802       N  0.17340279  0.96821320  0.77880980    -0.45700
N1803       N  0.34202456  0.56891604  0.69605328    -0.45900
C1804       C  0.15704243  0.58260625  0.74243814     0.43400
N1805       N  0.23988989  0.54501985  0.67104140     0.02300
N1806       N  0.24673387  0.55729186  0.79499839    -0.24600
N1807       N  0.19188856  0.98245638  0.73202749    -0.25100
N1808       N  0.27696657  0.55697187  0.79688128     0.01900
H1809       H  0.21185211  0.58599237  0.81463429     0.07800
H1810       H  0.34251230  0.58804530  0.77076980     0.07800
N1811       N  0.27000450  0.54365055  0.66583080    -0.25100
N1812       N  0.32392174  0.98720337  0.75076166    -0.24700
N1813       N  0.19468528  0.55149817  0.75296251     0.02300
C1814       C  0.24377958  0.93102860  0.65792356     0.43700
C1815       C  0.23890951  0.97012413  0.82728793    -0.06000
N1816       N  0.32109705  0.55385395  0.74164081    -0.24700
H1817       H  0.34713370  0.96557552  0.78969599     0.07800
N1818       N  0.22245705  0.95066502  0.66925517    -0.46000
H1819       H  0.21502550  0.96461303  0.83358148     0.07800
C1820       C  0.26257107  0.59531512  0.82625718     0.43500
C1821       C  0.17010710  0.96036603  0.72653637    -0.05500
Co1822     Co  0.22087190  0.52014524  0.77884459     0.73800
N1823       N  0.29049447  0.96758760  0.81962678    -0.45700
C1824       C  0.24832905  0.57906945  0.63317893     0.43800
N1825       N  0.17474777  0.57087043  0.76560830    -0.45700
Co1826     Co  0.30103050  0.02406355  0.77230579     0.73900
C1827       C  0.33764187  0.57986474  0.74741144    -0.06000
C1828       C  0.27401831  0.94653839  0.66232830    -0.05600
N1829       N  0.19136938  0.54869639  0.72239268    -0.25100
N1830       N  0.33496435  0.95297926  0.71420081    -0.45900
H1831       H  0.30024771  0.56744340  0.63122517     0.07800
C1832       C  0.23609554  0.58191077  0.81008384    -0.06000
Cl1833     Cl  0.25834705  0.51619651  0.73607525    -0.49000
C1834       C  0.26673226  0.95265292  0.83546563     0.43500
H1835       H  0.15773989  0.56791763  0.69029916     0.07800
N1836       N  0.28739480  0.57851241  0.81666070    -0.45700
C1837       C  0.40053503  0.90874212  0.82438355     0.24500
C1838       C  0.37533990  0.88735404  0.82687856    -0.23600
C1839       C  0.36292950  0.87921334  0.85704125     0.19100
C1840       C  0.37507621  0.89354459  0.88409221     0.24500
C1841       C  0.39965448  0.91575296  0.88078045    -0.23500
C1842       C  0.41239497  0.92250603  0.85077668     0.19400
F1843       F  0.43700353  0.94255010  0.84707434    -0.13500
F1844       F  0.41370927  0.91680014  0.79596315    -0.15800
F1845       F  0.36315791  0.88581236  0.91311969    -0.15800
F1846       F  0.33953917  0.85752979  0.86024186    -0.13500
C1847       C  0.03119555  0.54601006  0.84656097     0.24500
C1848       C  0.04082719  0.55766364  0.87583080    -0.23600
C1849       C  0.06393350  0.58131965  0.87587748     0.19400
C1850       C  0.07782331  0.59242364  0.84740317     0.24500
C1851       C  0.06862058  0.58017324  0.81838168    -0.23500
C1852       C  0.04510737  0.55697221  0.81821005     0.19400
F1853       F  0.03475867  0.54585875  0.79046940    -0.13500
F1854       F  0.00671397  0.52564688  0.84531147    -0.15800
F1855       F  0.10016073  0.61532016  0.84811652    -0.15800
F1856       F  0.07294123  0.59377416  0.90347609    -0.13500
C1857       C  0.43251777  0.54180908  0.79987969     0.24500
C1858       C  0.41853900  0.56997829  0.79157650    -0.23600
C1859       C  0.39903664  0.58488394  0.81334361     0.19400
C1860       C  0.39530886  0.57272962  0.84401386     0.24500
C1861       C  0.41172469  0.54612910  0.85324529    -0.23500
C1862       C  0.42945172  0.53010746  0.83067873     0.19400
F1863       F  0.44738024  0.50583209  0.83967500    -0.13500
F1864       F  0.45102942  0.52711971  0.77893292    -0.15800
F1865       F  0.37912754  0.58907204  0.86564985    -0.15800
F1866       F  0.38501960  0.61218949  0.80529864    -0.13500
C1867       C  0.07489503  0.91438202  0.84927764     0.24500
C1868       C  0.06357975  0.93444567  0.82547611    -0.23600
C1869       C  0.03564459  0.94975396  0.83045308     0.19400
C1870       C  0.02189068  0.94874870  0.86041545     0.24500
C1871       C  0.03635120  0.93297235  0.88551292    -0.23500
C1872       C  0.06078568  0.91317168  0.87912574     0.19400
F1873       F  0.07044579  0.89266225  0.90161917    -0.13500
F1874       F  0.09936209  0.89586462  0.84326720    -0.15800
F1875       F  0.99601891  0.96535742  0.86586355    -0.15800
F1876       F  0.02225272  0.96613447  0.80662949    -0.13500
C1877       C  0.17166504  0.86560583  0.86876456     0.24500
C1878       C  0.19924940  0.88363791  0.86998152    -0.23600
C1879       C  0.20187801  0.90673529  0.89334854     0.19400
C1880       C  0.17889386  0.91007384  0.91584133     0.24500
C1881       C  0.15068926  0.89370205  0.91362126    -0.23500
C1882       C  0.14711245  0.87105634  0.89015879     0.19400
F1883       F  0.12000069  0.85478541  0.88772872    -0.13500
F1884       F  0.16833332  0.84360938  0.84636212    -0.15800
F1885       F  0.18308773  0.93176797  0.93855106    -0.15800
F1886       F  0.22729854  0.92553469  0.89588443    -0.13500
C1887       C  0.16207174  0.54881372  0.95156372     0.24500
C1888       C  0.13828040  0.54178026  0.93035061    -0.23600
C1889       C  0.13983902  0.55566789  0.90001389     0.19400
C1890       C  0.16496410  0.57537320  0.89090105     0.24500
C1891       C  0.18902474  0.58149054  0.91204039    -0.23500
C1892       C  0.18691304  0.56883240  0.94272841     0.19400
F1893       F  0.20992038  0.57417313  0.96345886    -0.13500
F1894       F  0.16241983  0.53429306  0.98020782    -0.15800
F1895       F  0.16628589  0.58780148  0.86109683    -0.15800
F1896       F  0.11811052  0.54864875  0.87860791    -0.13500
C1897       C  0.14486440  0.51778001  0.53714464     0.24500
C1898       C  0.11606067  0.52537078  0.55053401    -0.23600
C1899       C  0.11452644  0.55031409  0.57125860     0.19400
C1900       C  0.14075688  0.56964674  0.57566312     0.24500
C1901       C  0.16817980  0.56499560  0.55825303    -0.23500
C1902       C  0.17046472  0.53802224  0.54006924     0.19400
F1903       F  0.19773156  0.53086571  0.52592609    -0.13500
F1904       F  0.14800246  0.49072731  0.52106222    -0.15800
F1905       F  0.14026975  0.59164576  0.59820789    -0.15800
F1906       F  0.08817341  0.55464269  0.58813112    -0.13500
C1907       C  0.13715969  0.85838781  0.61198758     0.24500
C1908       C  0.16671832  0.87262865  0.60920181    -0.23600
C1909       C  0.17344269  0.89323875  0.58338237     0.19400
C1910       C  0.15195298  0.89816478  0.56001373     0.24500
C1911       C  0.12230661  0.88423502  0.56255538    -0.23500
C1912       C  0.11481212  0.86441192  0.58883463     0.19400
F1913       F  0.08569963  0.85222971  0.59262990    -0.13500
F1914       F  0.12973169  0.83993497  0.63763809    -0.15800
F1915       F  0.15946334  0.91832860  0.53555775    -0.15800
F1916       F  0.20136089  0.90835063  0.58040950    -0.13500
C1917       C  0.42661615  0.66073900  0.92845376     0.24500
C1918       C  0.43596125  0.69041083  0.93951388    -0.23600
C1919       C  0.44595724  0.69268568  0.97072018     0.19400
C1920       C  0.44845147  0.66564911  0.98982654     0.24500
C1921       C  0.44132200  0.63566473  0.97807611    -0.23500
C1922       C  0.42898584  0.63357659  0.94774936     0.19400
F1923       F  0.42105380  0.60505046  0.93627727    -0.13500
F1924       F  0.41491260  0.65818252  0.89910318    -0.15800
F1925       F  0.46018351  0.66842679  0.01915173    -0.15800
F1926       F  0.45396943  0.72114261  0.98245964    -0.13500
C1927       C  0.06934092  0.71758043  0.96942454     0.24500
C1928       C  0.08708726  0.71545792  0.94173467    -0.23600
C1929       C  0.10216889  0.68725561  0.93502474     0.19400
C1930       C  0.09839070  0.66091995  0.95519179     0.24500
C1931       C  0.07915213  0.66249539  0.98192621    -0.23500
C1932       C  0.06533743  0.69119455  0.98945283     0.19400
F1933       F  0.04664496  0.69305368  0.01537425    -0.13500
F1934       F  0.05536301  0.74491532  0.97654527    -0.15800
F1935       F  0.11184415  0.63340576  0.94776896    -0.15800
F1936       F  0.12035033  0.68527315  0.90877076    -0.13500
C1937       C  0.43616465  0.64878026  0.60120236     0.24500
C1938       C  0.42755152  0.61857941  0.61288470    -0.23600
C1939       C  0.39952065  0.61422591  0.62996345     0.19400
C1940       C  0.38076593  0.64027989  0.63580835     0.24500
C1941       C  0.39004286  0.67042710  0.62434703    -0.23500
C1942       C  0.41750644  0.67417265  0.60641845     0.19400
F1943       F  0.42643573  0.70282182  0.59400421    -0.13500
F1944       F  0.46292088  0.65359358  0.58435405    -0.15800
F1945       F  0.35384238  0.63621084  0.65241771    -0.15800
F1946       F  0.39046424  0.58506655  0.64073302    -0.13500
C1947       C  0.10532707  0.63629830  0.64484155     0.24500
C1948       C  0.07676200  0.63938980  0.62962671    -0.23600
C1949       C  0.06624135  0.66955624  0.62203629     0.19400
C1950       C  0.08661661  0.69499421  0.62215379     0.24500
C1951       C  0.11599614  0.69238511  0.63562899    -0.23500
C1952       C  0.12472293  0.66308758  0.64849516     0.19400
F1953       F  0.15271604  0.66000206  0.66203681    -0.13500
F1954       F  0.11527122  0.60737070  0.65370820    -0.15800
F1955       F  0.07869856  0.72135769  0.60575391    -0.15800
F1956       F  0.03884298  0.67310346  0.60726058    -0.13500
C1957       C  0.74332037  0.16227521  0.04940483     0.43400
N1958       N  0.73547373  0.20123484  0.01724624     0.02300
C1959       C  0.85227518  0.29991947  0.44208855    -0.05600
H1960       H  0.84174424  0.30868000  0.06281181     0.07800
C1961       C  0.72809097  0.34490560  0.05352976    -0.05900
Co1962     Co  0.79912349  0.22952119  0.48781943     0.74200
N1963       N  0.81846964  0.28010257  0.02827600    -0.25100
Co1964     Co  0.79731253  0.30996743  0.99558490     0.74100
C1965       C  0.75375182  0.35181707  0.07413021     0.43500
N1966       N  0.68972380  0.28249629  0.02488894     0.01900
N1967       N  0.77071932  0.33040243  0.03182316     0.02000
N1968       N  0.84379376  0.24831251  0.43490697    -0.46000
H1969       H  0.79625171  0.16790191  0.04272383     0.07800
N1970       N  0.81633710  0.24935021  0.02453500     0.02300
N1971       N  0.78178791  0.33933609  0.46211420     0.02000
C1972       C  0.77130378  0.36810117  0.42075641     0.43600
N1973       N  0.68932874  0.25180517  0.02072021    -0.24600
C1974       C  0.78667116  0.18748953  0.42881325    -0.05500
N1975       N  0.72132721  0.17893209  0.03473053    -0.45700
N1976       N  0.79465162  0.35452781  0.43703463    -0.45900
C1977       C  0.75873808  0.17643723  0.41268728     0.43400
N1978       N  0.82562141  0.25867257  0.45742506     0.02300
N1979       N  0.70196019  0.26224414  0.44791041    -0.24600
N1980       N  0.76585804  0.20002132  0.01857600    -0.25100
N1981       N  0.69959393  0.29268455  0.45208956     0.01900
H1982       H  0.68067061  0.23012235  0.41646706     0.07800
H1983       H  0.71914873  0.36211332  0.43140241     0.07800
N1984       N  0.82955795  0.28908221  0.46200810    -0.25100
N1985       N  0.74039524  0.33106834  0.02887840    -0.24700
N1986       N  0.74678667  0.21123334  0.44689995     0.02300
C1987       C  0.84415585  0.25436258  0.06598551     0.43700
C1988       C  0.67287257  0.23766339  0.04413623    -0.06000
N1989       N  0.75130997  0.34039915  0.46176955    -0.24700
H1990       H  0.70359858  0.34776156  0.05738233     0.07800
N1991       N  0.83116056  0.23342836  0.04642076    -0.46000
H1992       H  0.66912313  0.21248524  0.04691844     0.07800
C1993       C  0.66874780  0.28238567  0.41337242     0.43500
C1994       C  0.77316734  0.17618858  0.03856632    -0.05500
Co1995     Co  0.72059100  0.23218658  0.48149007     0.73800
N1996       N  0.67468461  0.29020225  0.05129366    -0.45700
C1997       C  0.86174863  0.27261262  0.42367259     0.43800
N1998       N  0.73520446  0.19227743  0.42566443    -0.45700
Co1999     Co  0.71598824  0.31142584  0.99259073     0.73900
C2000       C  0.74285425  0.35896226  0.43802733    -0.06000
C2001       C  0.83579246  0.28571888  0.05390596    -0.05600
N2002       N  0.77688434  0.20881992  0.44961500    -0.25100
N2003       N  0.77981118  0.34199634  0.05928605    -0.45900
H2004       H  0.86181472  0.32368441  0.44127845     0.07800
C2005       C  0.68545212  0.25419814  0.42301332    -0.06000
Cl2006     Cl  0.75501427  0.27012250  0.99005973    -0.49000
C2007       C  0.66321354  0.26287119  0.06474060     0.43500
H2008       H  0.80967718  0.17803156  0.42784027     0.07800
N2009       N  0.67895878  0.30534445  0.43285378    -0.45700
C2010       C  0.65061192  0.25780024  0.09766886     0.04100
C2011       C  0.62827058  0.27758976  0.11168321    -0.12100
C2012       C  0.61507447  0.26930428  0.14188559     0.01600
C2013       C  0.62706973  0.24292005  0.15798895    -0.10600
C2014       C  0.63960953  0.21906581  0.13999791     0.04100
C2015       C  0.65611830  0.22839853  0.11269543    -0.10000
H2016       H  0.61873647  0.29653939  0.09772708     0.09700
H2017       H  0.61624479  0.23552563  0.18032302     0.07200
H2018       H  0.66880194  0.21050663  0.10056631     0.07000
C2019       C  0.86095454  0.24401470  0.09470801     0.04100
C2020       C  0.85847976  0.21160553  0.10260655    -0.12100
C2021       C  0.87563916  0.19861367  0.12679741     0.01600
C2022       C  0.89032950  0.21874026  0.14735090    -0.10600
C2023       C  0.89870879  0.24953276  0.13704527     0.04100
C2024       C  0.88262172  0.26304591  0.11119732    -0.10000
H2025       H  0.84635321  0.19546670  0.08746424     0.09700
H2026       H  0.90270033  0.20777849  0.16662032     0.07200
H2027       H  0.88866577  0.28659907  0.10248879     0.07000
C2028       C  0.59558022  0.26422616  0.36813474     0.04100
C2029       C  0.62324498  0.28058353  0.37588830    -0.12100
C2030       C  0.63547272  0.27718564  0.40658545     0.01600
C2031       C  0.61905132  0.25847661  0.42920443    -0.10600
C2032       C  0.59430318  0.23941505  0.42040007     0.04100
C2033       C  0.58200625  0.24299627  0.39041486    -0.10000
H2034       H  0.63604865  0.29380181  0.35772221     0.09700
H2035       H  0.62878142  0.25454413  0.45236677     0.07200
H2036       H  0.56244128  0.22819399  0.38412138     0.07000
C2037       C  0.93039247  0.25267534  0.37180076     0.04100
C2038       C  0.94145563  0.22801753  0.39121945    -0.12100
C2039       C  0.92969044  0.22281938  0.42186740     0.01600
C2040       C  0.90785844  0.24306861  0.43375855    -0.10600
C2041       C  0.89366184  0.26515077  0.41400965     0.04100
C2042       C  0.90559485  0.27081354  0.38307954    -0.10000
H2043       H  0.95891144  0.21236197  0.38249176     0.09700
H2044       H  0.89833017  0.23819316  0.45726793     0.07200
H2045       H  0.89439894  0.28732852  0.36735042     0.07000
N2046       N  0.01537053  0.11201549  0.49909328    -0.35700
N2047       N  0.55374729  0.11686816  0.04898308    -0.56200
N2048       N  0.00713370  0.09264992  0.09654026    -0.35700
N2049       N  0.96186559  0.08951662  0.04425404    -0.56200
C2050       C  0.52867005  0.11793420  0.48192764     0.27900
C2051       C  0.99134094  0.10872181  0.47963173     0.27900
C2052       C  0.53139214  0.10576731  0.11599426     0.27900
C2053       C  0.97988389  0.09327316  0.11281918     0.27900
C2054       C  0.56785808  0.12268490  0.52394828     0.36500
C2055       C  0.57171504  0.12106749  0.07408162     0.36500
C2056       C  0.94918503  0.09701880  0.51841147     0.36500
C2057       C  0.94356054  0.08107109  0.06913833     0.36500
C2058       C  0.51858653  0.12531499  0.45195404    -0.20900
C2059       C  0.00110447  0.11490351  0.44888390    -0.20900
C2060       C  0.52101013  0.10588099  0.14710229    -0.20900
C2061       C  0.98507014  0.10369355  0.14306376    -0.20900
C2062       C  0.59792457  0.12880661  0.53250723    -0.22000
C2063       C  0.59906634  0.13687993  0.06435046    -0.22000
C2064       C  0.91829218  0.09451194  0.52673910    -0.22000
C2065       C  0.91363550  0.07557444  0.05878679    -0.22000
C2066       C  0.55672814  0.12967235  0.49384189    -0.17400
C2067       C  0.96029914  0.10994576  0.48945454    -0.17400
C2068       C  0.94987267  0.09141883  0.09972954    -0.17300
C2069       C  0.56121594  0.11776223  0.10602475    -0.17300
H2070       H  0.53070826  0.13851461  0.43329748     0.15600
H2071       H  0.98669553  0.11805935  0.42866369     0.15600
H2072       H  0.53426835  0.11209299  0.16755284     0.15600
H2073       H  0.96780226  0.10793052  0.16117195     0.15600
H2074       H  0.61677836  0.13811653  0.51771162     0.13800
H2075       H  0.61789382  0.14483700  0.07878555     0.13800
H2076       H  0.89874368  0.09932656  0.51190339     0.13800
H2077       H  0.89313068  0.07110977  0.07327850     0.13800
H2078       H  0.01368028  0.11346156  0.52326738     0.27100
H2079       H  0.00996897  0.08688965  0.07307068     0.27100
C2080       C  0.57869167  0.16867821  0.23763992     0.43400
N2081       N  0.54581637  0.20440614  0.25027622     0.02300
C2082       C  0.94298961  0.29058573  0.15762095    -0.05600
H2083       H  0.57270633  0.32697308  0.16101155     0.07800
C2084       C  0.56426216  0.34749147  0.26760883    -0.05900
Co2085     Co  0.00906938  0.22867896  0.19236582     0.74200
N2086       N  0.53857791  0.29088128  0.17557374    -0.25100
Co2087     Co  0.00353073  0.31108193  0.19516236     0.74100
C2088       C  0.57599496  0.36575246  0.23988571     0.43500
N2089       N  0.54434275  0.27937177  0.30592792     0.01900
N2090       N  0.53657934  0.33646663  0.22759507     0.02000
N2091       N  0.95079760  0.23844645  0.15613576    -0.46000
H2092       H  0.56427686  0.17281547  0.18547160     0.07800
N2093       N  0.53899593  0.25987408  0.17366165     0.02300
N2094       N  0.96874393  0.33086582  0.22349390     0.02000
C2095       C  0.92913896  0.35486245  0.24205936     0.43600
N2096       N  0.54584284  0.24865738  0.30293553    -0.24600
C2097       C  0.95581251  0.17915049  0.20719286    -0.05500
N2098       N  0.56615035  0.18459737  0.26159895    -0.45700
N2099       N  0.94340882  0.34619905  0.21492826    -0.45900
C2100       C  0.94299533  0.16366223  0.23581460     0.43400
N2101       N  0.97375539  0.25283235  0.17022759     0.02300
N2102       N  0.97650081  0.24499510  0.30061101    -0.24600
N2103       N  0.54353262  0.20369458  0.21938267    -0.25100
N2104       N  0.97498611  0.27581172  0.30328304     0.01900
H2105       H  0.95541169  0.20580686  0.32639768     0.07800
H2106       H  0.94435011  0.34512501  0.29313515     0.07800
N2107       N  0.97017919  0.28358685  0.17153940    -0.25100
N2108       N  0.53948952  0.33126981  0.25815252    -0.24700
N2109       N  0.97749206  0.19841338  0.24845327     0.02300
C2110       C  0.58177501  0.27481555  0.15005580     0.43700
C2111       C  0.56885456  0.23805940  0.32078852    -0.06000
N2112       N  0.97144126  0.32851243  0.25446792    -0.24700
H2113       H  0.57145584  0.34910638  0.29183337     0.07800
N2114       N  0.56369676  0.24983370  0.15895779    -0.46000
H2115       H  0.57404489  0.21349133  0.32488196     0.07800
C2116       C  0.94328140  0.25650904  0.33911810     0.43500
C2117       C  0.56312949  0.18131491  0.20919040    -0.05500
Co2118     Co  0.01062265  0.22435124  0.27350614     0.73800
N2119       N  0.56474392  0.29041960  0.32623787    -0.45700
C2120       C  0.93004154  0.26011058  0.14744872     0.43800
N2121       N  0.95806334  0.17648419  0.26031993    -0.45700
Co2122     Co  0.00707244  0.30482573  0.27730162     0.73900
C2123       C  0.94804820  0.34328489  0.26796038    -0.06000
C2124       C  0.56510221  0.30254538  0.16148983    -0.05600
N2125       N  0.97698295  0.20006451  0.21736703    -0.25100
N2126       N  0.55711814  0.35766192  0.21606495    -0.45900
H2127       H  0.93301512  0.31369676  0.15599925     0.07800
C2128       C  0.95710392  0.23094837  0.32165523    -0.06000
Cl2129     Cl  0.00741092  0.26721513  0.23462510    -0.49000
C2130       C  0.58175486  0.26580117  0.33633375     0.43500
H2131       H  0.95161144  0.17381885  0.18279894     0.07800
N2132       N  0.95585634  0.28373557  0.32658270    -0.45700
C2133       C  0.74853986  0.35870361  0.10803329     0.04100
C2134       C  0.72079533  0.34543005  0.12082503    -0.12100
C2135       C  0.69998452  0.36553878  0.13492050     0.01600
C2136       C  0.71236444  0.39049272  0.15158543    -0.10600
C2137       C  0.74263859  0.40200202  0.14464067     0.04100
C2138       C  0.76058107  0.38654071  0.12155669    -0.10000
H2139       H  0.71096514  0.32466999  0.11001279     0.09700
H2140       H  0.69632905  0.40459861  0.16479439     0.07200
H2141       H  0.78120987  0.39803328  0.11156558     0.07000
C2142       C  0.73683144  0.13062168  0.06398334     0.04100
C2143       C  0.71080705  0.11326027  0.05371968    -0.12100
C2144       C  0.70374072  0.08335152  0.06669033     0.01600
C2145       C  0.72252070  0.07056483  0.08953402    -0.10600
C2146       C  0.74607643  0.08859050  0.10289568     0.04100
C2147       C  0.75425098  0.11838816  0.08931749    -0.10000
H2148       H  0.69588889  0.12296681  0.03583196     0.09700
H2149       H  0.71618236  0.04755288  0.09972188     0.07200
H2150       H  0.77230184  0.13268416  0.09961480     0.07000
C2151       C  0.75325754  0.14410885  0.40125817     0.04100
C2152       C  0.73029234  0.12520059  0.41695457    -0.12100
C2153       C  0.72349540  0.09480765  0.40696344     0.01600
C2154       C  0.74015734  0.08284585  0.38179976    -0.10600
C2155       C  0.76033387  0.10229673  0.36326834     0.04100
C2156       C  0.76776840  0.13287076  0.37367499    -0.10000
H2157       H  0.71718815  0.13428456  0.43662561     0.09700
H2158       H  0.73398654  0.05944189  0.37390534     0.07200
H2159       H  0.78281941  0.14841783  0.35944022     0.07000
C2160       C  0.76571628  0.41538621  0.34431765     0.04100
C2161       C  0.74033863  0.39792463  0.33277921    -0.12100
C2162       C  0.72704104  0.37377501  0.35149647     0.01600
C2163       C  0.74720478  0.35706897  0.37052402    -0.10600
C2164       C  0.77047818  0.37432918  0.38591568     0.04100
C2165       C  0.78068728  0.40364998  0.37180853    -0.10000
H2166       H  0.72605698  0.40809473  0.31459514     0.09700
H2167       H  0.73788995  0.33568834  0.38195656     0.07200
H2168       H  0.79639132  0.41890215  0.38432717     0.07000
N2169       N  0.59237544  0.00396866  0.99119024    -0.35700
N2170       N  0.60719333  0.46181359  0.43405759    -0.56200
N2171       N  0.59847911  0.40478060  0.99126379    -0.35700
N2172       N  0.58552338  0.45047104  0.04069290    -0.56200
C2173       C  0.60134006  0.02046159  0.46454619     0.27900
C2174       C  0.58379533  0.01985910  0.01673019     0.27900
C2175       C  0.61506636  0.39467879  0.45818606     0.27900
C2176       C  0.60459079  0.38725241  0.01770039     0.27900
C2177       C  0.61681643  0.98476059  0.42343162     0.36500
C2178       C  0.61453550  0.43783662  0.41547809     0.36500
C2179       C  0.58782063  0.97990607  0.05850705     0.36500
C2180       C  0.58925456  0.42521684  0.05992849     0.36500
C2181       C  0.59133492  0.04957455  0.47377495    -0.20900
C2182       C  0.57810295  0.05064129  0.00816574    -0.20900
C2183       C  0.62574251  0.36584615  0.46899935    -0.20900
C2184       C  0.61887211  0.35975050  0.00902166    -0.20900
C2185       C  0.62850239  0.97837394  0.39395314    -0.22000
C2186       C  0.62479810  0.45001741  0.38609275    -0.22000
C2187       C  0.59185731  0.97074257  0.08949155    -0.22000
C2188       C  0.58995448  0.43481676  0.09114476    -0.22000
C2189       C  0.61696413  0.01488228  0.43631181    -0.17400
C2190       C  0.59261291  0.01081617  0.04698477    -0.17400
C2191       C  0.60200007  0.39663852  0.04976109    -0.17300
C2192       C  0.62130626  0.40690383  0.42692817    -0.17300
H2193       H  0.59055217  0.07092752  0.45950755     0.15600
H2194       H  0.57390394  0.06930173  0.02412075     0.15600
H2195       H  0.63741015  0.34831260  0.45538427     0.15600
H2196       H  0.62713723  0.34123663  0.02453205     0.15600
H2197       H  0.63703977  0.99511796  0.37603762     0.13800
H2198       H  0.63398689  0.43704929  0.36652209     0.13800
H2199       H  0.59610428  0.98581238  0.10925556     0.13800
H2200       H  0.59441273  0.42048159  0.11194768     0.13800
H2201       H  0.60246658  0.98203481  0.99173021     0.27100
H2202       H  0.58855946  0.42678157  0.99040963     0.27100
C2203       C  0.58663249  0.39856435  0.24455300     0.04100
C2204       C  0.61779336  0.40886077  0.24025854    -0.12100
C2205       C  0.62940906  0.43420467  0.25813884     0.01600
C2206       C  0.61053190  0.44605482  0.28221328    -0.10600
C2207       C  0.57968646  0.43579939  0.28564350     0.04100
C2208       C  0.56707677  0.41558107  0.26393339    -0.10000
H2209       H  0.63315170  0.39627590  0.22482023     0.09700
H2210       H  0.61994616  0.46233776  0.29903796     0.07200
H2211       H  0.54332577  0.40730355  0.26769698     0.07000
C2212       C  0.88839111  0.09384940  0.22032778     0.04100
C2213       C  0.90307793  0.07099813  0.23866503    -0.12100
C2214       C  0.92031262  0.08126954  0.26378780     0.01600
C2215       C  0.93400064  0.11140307  0.26228359    -0.10600
C2216       C  0.92654176  0.13267165  0.23785038     0.04100
C2217       C  0.90167259  0.12460851  0.21802458    -0.10000
H2218       H  0.89279822  0.04742421  0.24050106     0.09700
H2219       H  0.94882998  0.11874681  0.28121699     0.07200
H2220       H  0.89138028  0.14250483  0.20316628     0.07000
C2221       C  0.58992436  0.13611048  0.24472501     0.04100
C2222       C  0.57416335  0.11957959  0.26958086    -0.12100
C2223       C  0.58667056  0.09322270  0.28433911     0.01600
C2224       C  0.61422228  0.08129799  0.27287250    -0.10600
C2225       C  0.63074277  0.09643637  0.24773417     0.04100
C2226       C  0.61850472  0.12419534  0.23351927    -0.10000
H2227       H  0.55282501  0.12858758  0.27925483     0.09700
H2228       H  0.62365103  0.06089161  0.28488030     0.07200
H2229       H  0.63199483  0.13744640  0.21586297     0.07000
C2230       C  0.86125594  0.41112018  0.24792023     0.04100
C2231       C  0.88623936  0.39531947  0.23313005    -0.12100
C2232       C  0.89704983  0.36662116  0.24686117     0.01600
C2233       C  0.88178451  0.35428999  0.27419811    -0.10600
C2234       C  0.86393040  0.37404290  0.29234636     0.04100
C2235       C  0.84901967  0.39837261  0.27667751    -0.10000
H2236       H  0.89898731  0.40674092  0.21369841     0.09700
H2237       H  0.89085744  0.33369815  0.28616245     0.07200
H2238       H  0.83258769  0.41155950  0.29035114     0.07000
N2239       N  0.92471763  0.48339121  0.40506100    -0.35700
N2240       N  0.97095940  0.03854481  0.40511853    -0.56200
N2241       N  0.53920806  0.49194291  0.40298600    -0.35700
N2242       N  0.97037339  0.43748722  0.41997266    -0.56200
C2243       C  0.90816987  0.00712171  0.40286344     0.27900
C2244       C  0.90697828  0.45646666  0.40530643     0.27900
C2245       C  0.53126456  0.02274733  0.41911487     0.27900
C2246       C  0.52853737  0.46666597  0.42036129     0.27900
C2247       C  0.94598328  0.05198352  0.39262525     0.36500
C2248       C  0.49533527  0.06071215  0.39976639     0.36500
C2249       C  0.94796530  0.41639520  0.41332599     0.36500
C2250       C  0.49419491  0.42076316  0.41611304     0.36500
C2251       C  0.87746821  0.99751660  0.40564167    -0.20900
C2252       C  0.87666879  0.46406629  0.39870442    -0.20900
C2253       C  0.51717134  0.01631118  0.44830160    -0.20900
C2254       C  0.51841173  0.47617300  0.44970109    -0.20900
C2255       C  0.95465918  0.08048883  0.37761599    -0.22000
C2256       C  0.48600495  0.08645247  0.38209766    -0.22000
C2257       C  0.96100437  0.38751871  0.40710420    -0.22000
C2258       C  0.48572504  0.39140620  0.40520941    -0.22000
C2259       C  0.91763427  0.03570171  0.38769219    -0.17400
C2260       C  0.91805828  0.42515490  0.40381053    -0.17400
C2261       C  0.52174441  0.43705031  0.40727162    -0.17300
C2262       C  0.52580366  0.04991777  0.40033460    -0.17300
H2263       H  0.85749170  0.01169802  0.40088160     0.15600
H2264       H  0.85736614  0.44791138  0.39547004     0.15600
H2265       H  0.50532459  0.03286742  0.46302908     0.15600
H2266       H  0.50773540  0.46159232  0.46831434     0.15600
H2267       H  0.94044262  0.09666035  0.36462829     0.13800
H2268       H  0.50033817  0.10457368  0.37047186     0.13800
H2269       H  0.94924248  0.36659507  0.39885226     0.13800
H2270       H  0.50064324  0.37456821  0.39418199     0.13800
H2271       H  0.94866357  0.48528938  0.40573054     0.27100
H2272       H  0.54666627  0.49200335  0.37953789     0.27100
C2273       C  0.66103250  0.44799295  0.25311122     0.43400
N2274       N  0.69665734  0.48355534  0.26033827     0.02300
C2275       C  0.78291993  0.06207190  0.14403676    -0.05600
H2276       H  0.80340580  0.44191163  0.15695205     0.07800
C2277       C  0.84495964  0.46636023  0.26540441    -0.05900
Co2278     Co  0.71867796  0.01176154  0.20039889     0.74200
N2279       N  0.77276911  0.47699989  0.17569887    -0.25100
Co2280     Co  0.79939446  0.00905990  0.19435672     0.74100
C2281       C  0.85308658  0.44459743  0.24056235     0.43500
N2282       N  0.77968727  0.48907634  0.30391854     0.01900
N2283       N  0.82489952  0.48202046  0.22171310     0.02000
N2284       N  0.73191966  0.06540072  0.15378607    -0.46000
H2285       H  0.66586214  0.45406419  0.19921663     0.07800
N2286       N  0.74235648  0.47816380  0.17817982     0.02300
N2287       N  0.82487645  0.04649991  0.21303883     0.02000
C2288       C  0.85475909  0.08772365  0.21813990     0.43600
N2289       N  0.74922569  0.48958233  0.30593106    -0.24600
C2290       C  0.67328135  0.06839247  0.21274383    -0.05500
N2291       N  0.67604491  0.46474570  0.27525975    -0.45700
N2292       N  0.84387361  0.06652803  0.19740556    -0.45900
C2293       C  0.66239716  0.08453028  0.24117673     0.43400
N2294       N  0.74417796  0.04380556  0.17218383     0.02300
N2295       N  0.74847046  0.05571245  0.29769997    -0.24600
N2296       N  0.69525266  0.48123143  0.22946715    -0.25100
N2297       N  0.77877241  0.05570969  0.29895808     0.01900
H2298       H  0.71362988  0.08278043  0.31992045     0.07800
H2299       H  0.84326843  0.08825830  0.27136327     0.07800
N2300       N  0.77422592  0.04144045  0.16740819    -0.25100
N2301       N  0.82689589  0.48770327  0.25204543    -0.24700
N2302       N  0.69784569  0.05113165  0.25333647     0.02300
C2303       C  0.75044461  0.43384773  0.15621357     0.43700
C2304       C  0.73935797  0.46633998  0.32542466    -0.06000
N2305       N  0.82309615  0.05230440  0.24339693    -0.24700
H2306       H  0.85007813  0.46490837  0.29027579     0.07800
N2307       N  0.72844827  0.45301990  0.16700238    -0.46000
H2308       H  0.71533939  0.46055163  0.33082481     0.07800
C2309       C  0.76465791  0.09286405  0.33003443     0.43500
C2310       C  0.67387836  0.45910262  0.22261898    -0.05500
Co2311     Co  0.72278824  0.01895737  0.28008808     0.73800
N2312       N  0.79130303  0.46472506  0.31987585    -0.45700
C2313       C  0.75456600  0.07824707  0.13497127     0.43800
N2314       N  0.67885277  0.07199710  0.26506201    -0.45700
Co2315     Co  0.80277838  0.52295249  0.27468738     0.73900
C2316       C  0.83890866  0.07899987  0.24832110    -0.06000
C2317       C  0.78023196  0.44981329  0.16172758    -0.05600
N2318       N  0.69521870  0.04833470  0.22268603    -0.25100
N2319       N  0.83956696  0.45584832  0.21390475    -0.45900
H2320       H  0.80602587  0.06489820  0.13408597     0.07800
C2321       C  0.73782902  0.07932013  0.31445529    -0.06000
Cl2322     Cl  0.76079651  0.01473251  0.23772493    -0.49000
C2323       C  0.76703275  0.44928149  0.33439195     0.43500
H2324       H  0.66407128  0.06949084  0.18920132     0.07800
N2325       N  0.78938741  0.07663805  0.31928559    -0.45700
C2326       C  0.90578017  0.40100095  0.32083502     0.24500
C2327       C  0.87801641  0.38306080  0.32255788    -0.23600
C2328       C  0.86424870  0.37616746  0.35229726     0.19100
C2329       C  0.87765879  0.38822534  0.37975943     0.24500
C2330       C  0.90497929  0.40689168  0.37738350    -0.23500
C2331       C  0.91923301  0.41212788  0.34776684     0.19400
F2332       F  0.94574840  0.42968449  0.34470316    -0.13500
F2333       F  0.91940449  0.40928628  0.29270936    -0.15800
F2334       F  0.86369070  0.38257580  0.40826265    -0.15800
F2335       F  0.83771602  0.35859345  0.35457558    -0.13500
C2336       C  0.54086602  0.04216194  0.34343993     0.24500
C2337       C  0.54503232  0.05847349  0.37166808    -0.23600
C2338       C  0.56149525  0.08731739  0.37016273     0.19400
C2339       C  0.57593708  0.09806259  0.34200876     0.24500
C2340       C  0.57296259  0.08074796  0.31437011    -0.23500
C2341       C  0.55540516  0.05266717  0.31528149     0.19400
F2342       F  0.55077946  0.03650625  0.28847783    -0.13500
F2343       F  0.52015051  0.01799039  0.34237819    -0.15800
F2344       F  0.59236352  0.12569465  0.34154486    -0.15800
F2345       F  0.56260972  0.10564640  0.39580625    -0.13500
C2346       C  0.92341375  0.03528174  0.30109686     0.24500
C2347       C  0.91376820  0.06591722  0.29460299    -0.23600
C2348       C  0.89552809  0.08140848  0.31705655     0.19400
C2349       C  0.89108616  0.06831586  0.34732091     0.24500
C2350       C  0.90592882  0.04038449  0.35544481    -0.23500
C2351       C  0.91975113  0.02261118  0.33153226     0.19400
F2352       F  0.93359276  0.99506448  0.33867998    -0.13500
F2353       F  0.93846611  0.01876273  0.27876386    -0.15800
F2354       F  0.87698115  0.08530670  0.36990792    -0.15800
F2355       F  0.88357379  0.11004134  0.31020077    -0.13500
C2356       C  0.57444913  0.41553724  0.34041577     0.24500
C2357       C  0.56405159  0.43606096  0.31649460    -0.23600
C2358       C  0.53564288  0.45083307  0.32037396     0.19400
C2359       C  0.51991617  0.44808027  0.34933436     0.24500
C2360       C  0.53330826  0.43192839  0.37486170    -0.23500
C2361       C  0.55894967  0.41340953  0.36951027     0.19400
F2362       F  0.56822792  0.39286127  0.39216168    -0.13500
F2363       F  0.59909015  0.39699835  0.33507032    -0.15800
F2364       F  0.49238900  0.46228644  0.35318561    -0.15800
F2365       F  0.52329258  0.46770188  0.29625455    -0.13500
C2366       C  0.67036084  0.36421001  0.36625569     0.24500
C2367       C  0.69798539  0.38208710  0.36840233    -0.23600
C2368       C  0.69959589  0.40591926  0.39100906     0.19400
C2369       C  0.67598887  0.40951043  0.41269741     0.24500
C2370       C  0.64786352  0.39316987  0.40973543    -0.23500
C2371       C  0.64495458  0.37028238  0.38640322     0.19400
F2372       F  0.61781185  0.35426619  0.38303978    -0.13500
F2373       F  0.66783066  0.34186091  0.34410846    -0.15800
F2374       F  0.67947371  0.43150470  0.43520089    -0.15800
F2375       F  0.72443006  0.42560205  0.39318229    -0.13500
C2376       C  0.67296068  0.02907174  0.44192366     0.24500
C2377       C  0.64405947  0.03616126  0.42901014    -0.23600
C2378       C  0.64114800  0.06409252  0.41133333     0.19400
C2379       C  0.66664691  0.08445314  0.40590050     0.24500
C2380       C  0.69562112  0.07704543  0.41831888    -0.23500
C2381       C  0.69850679  0.04940395  0.43668061     0.19400
F2382       F  0.72627632  0.04179491  0.44882350    -0.13500
F2383       F  0.67649913  0.00211743  0.45920744    -0.15800
F2384       F  0.66342852  0.11063553  0.38729603    -0.15800
F2385       F  0.61378712  0.07108750  0.39867402    -0.13500
C2386       C  0.64927104  0.02019392  0.03946539     0.24500
C2387       C  0.62173074  0.02711837  0.05602051    -0.23600
C2388       C  0.62149773  0.05282854  0.07606150     0.19400
C2389       C  0.64802347  0.07216114  0.07837642     0.24500
C2390       C  0.67473453  0.06621024  0.06033053    -0.23500
C2391       C  0.67537063  0.03977345  0.04137300     0.19400
F2392       F  0.70149919  0.03270192  0.02507953    -0.13500
F2393       F  0.65063908  0.99478468  0.02073285    -0.15800
F2394       F  0.64824849  0.09615240  0.09885532    -0.15800
F2395       F  0.59576358  0.05886455  0.09335588    -0.13500
C2396       C  0.64406137  0.35814724  0.11887957     0.24500
C2397       C  0.67311413  0.37333799  0.11515506    -0.23600
C2398       C  0.67813312  0.39496334  0.08976827     0.19400
C2399       C  0.65544220  0.40005725  0.06776439     0.24500
C2400       C  0.62648291  0.38481549  0.07098950    -0.23500
C2401       C  0.62059772  0.36407680  0.09692492     0.19400
F2402       F  0.59209978  0.35059437  0.10136627    -0.13500
F2403       F  0.63831516  0.33854879  0.14411392    -0.15800
F2404       F  0.66126246  0.42120585  0.04370556    -0.15800
F2405       F  0.70554356  0.41082410  0.08569145    -0.13500
C2406       C  0.92615099  0.16411659  0.42856369     0.24500
C2407       C  0.93574200  0.19353299  0.44008517    -0.23600
C2408       C  0.94774171  0.19504914  0.47053780     0.19400
C2409       C  0.95221771  0.16742931  0.48824342     0.24500
C2410       C  0.94448104  0.13777896  0.47594472    -0.23500
C2411       C  0.93019335  0.13642698  0.44656723     0.19400
F2412       F  0.92216312  0.10816617  0.43453963    -0.13500
F2413       F  0.91297173  0.16226431  0.39982749    -0.15800
F2414       F  0.96666350  0.16934612  0.51634501    -0.15800
F2415       F  0.95632568  0.22321593  0.48256721    -0.13500
C2416       C  0.56980974  0.21459322  0.46866575     0.24500
C2417       C  0.58593008  0.21151138  0.44007611    -0.23600
C2418       C  0.59582514  0.18165848  0.43093083     0.19400
C2419       C  0.58868958  0.15498046  0.44976505     0.24500
C2420       C  0.57060978  0.15776840  0.47720221    -0.23500
C2421       C  0.56176197  0.18779492  0.48692537     0.19400
F2422       F  0.54428848  0.19090304  0.51353107    -0.13500
F2423       F  0.56112393  0.24340249  0.47831519    -0.15800
F2424       F  0.59853925  0.12641956  0.44083422    -0.15800
F2425       F  0.61238681  0.17844499  0.40375404    -0.13500
C2426       C  0.93959138  0.14822096  0.09875736     0.24500
C2427       C  0.92982426  0.11778611  0.10888468    -0.23600
C2428       C  0.90077485  0.11338775  0.12399774     0.19400
C2429       C  0.88209683  0.13949237  0.12949747     0.24500
C2430       C  0.89248848  0.16980164  0.11975612    -0.23500
C2431       C  0.92102581  0.17374228  0.10371010     0.19400
F2432       F  0.93104431  0.20264701  0.09285200    -0.13500
F2433       F  0.96727589  0.15316143  0.08359739    -0.15800
F2434       F  0.85409805  0.13529337  0.14404131    -0.15800
F2435       F  0.89058345  0.08406852  0.13309745    -0.13500
C2436       C  0.60467357  0.13522944  0.14167057     0.24500
C2437       C  0.57644704  0.14109972  0.12659824    -0.23600
C2438       C  0.56848322  0.17223905  0.11960502     0.19400
C2439       C  0.59036528  0.19613683  0.12167606     0.24500
C2440       C  0.61866799  0.19115604  0.13670879    -0.23500
C2441       C  0.62566127  0.16041781  0.14716632     0.19400
F2442       F  0.65352056  0.15449428  0.16001919    -0.13500
F2443       F  0.61258689  0.10520958  0.14897511    -0.15800
F2444       F  0.58496084  0.22347888  0.10574412    -0.15800
F2445       F  0.54183556  0.17848975  0.10432284    -0.13500
C2446       C  0.74791196  0.16307287  0.54744061     0.43400
N2447       N  0.74051714  0.20204260  0.51506600     0.02300
C2448       C  0.84541856  0.29812070  0.94019336    -0.05600
H2449       H  0.84407920  0.30782204  0.56754327     0.07800
C2450       C  0.73107555  0.34482836  0.55243998    -0.05900
Co2451     Co  0.79279220  0.22859213  0.98716935     0.74200
N2452       N  0.82299772  0.28017761  0.53087297    -0.25100
Co2453     Co  0.80319294  0.31083902  0.49724413     0.74100
C2454       C  0.75534215  0.35105306  0.57473642     0.43500
N2455       N  0.69426844  0.28379666  0.52091238     0.01900
N2456       N  0.77491531  0.33079581  0.53288111     0.02000
N2457       N  0.83552847  0.24686216  0.93272444    -0.46000
H2458       H  0.80082049  0.16961759  0.54293342     0.07800
N2459       N  0.82100569  0.24948172  0.52661819     0.02300
N2460       N  0.77477464  0.33783583  0.96150367     0.02000
C2461       C  0.76347688  0.36600336  0.92022275     0.43600
N2462       N  0.69393752  0.25317657  0.51638386    -0.24600
C2463       C  0.77876005  0.18718848  0.92847882    -0.05500
N2464       N  0.72605852  0.17932293  0.53187882    -0.45700
N2465       N  0.78715154  0.35292189  0.93618978    -0.45900
C2466       C  0.75049503  0.17576813  0.91340104     0.43400
N2467       N  0.81766004  0.25758522  0.95526357     0.02300
N2468       N  0.69334815  0.25973803  0.95154492    -0.24600
N2469       N  0.77082791  0.20113819  0.51767931    -0.25100
N2470       N  0.69169942  0.29039515  0.95474028     0.01900
H2471       H  0.67156988  0.22700241  0.92080830     0.07800
H2472       H  0.71145214  0.35911775  0.93189864     0.07800
N2473       N  0.82231120  0.28786892  0.95985634    -0.25100
N2474       N  0.74482991  0.33162256  0.52829555    -0.24700
N2475       N  0.73892444  0.20933041  0.94892680     0.02300
C2476       C  0.84617450  0.25340581  0.57004831     0.43700
C2477       C  0.67476628  0.23916097  0.53759351    -0.06000
N2478       N  0.74426338  0.33854036  0.96189357    -0.24700
H2479       H  0.70641496  0.34768788  0.55479550     0.07800
N2480       N  0.83429636  0.23300783  0.54927101    -0.46000
H2481       H  0.67000949  0.21406521  0.53936548     0.07800
C2482       C  0.66138876  0.27960327  0.91543818     0.43500
C2483       C  0.77777153  0.17751272  0.53790188    -0.05500
Co2484     Co  0.71399104  0.23056923  0.98450943     0.73800
N2485       N  0.67651148  0.29161753  0.54540325    -0.45700
C2486       C  0.85461497  0.27053130  0.92211051     0.43800
N2487       N  0.72695066  0.19046114  0.92781474    -0.45700
Co2488     Co  0.72217119  0.31285954  0.49080585     0.73900
C2489       C  0.73529487  0.35660705  0.93804460    -0.06000
C2490       C  0.83871452  0.28509491  0.55777633    -0.05600
N2491       N  0.76919779  0.20763024  0.95021465    -0.25100
N2492       N  0.78233625  0.34169184  0.56120878    -0.45900
H2493       H  0.85587041  0.32148243  0.93988550     0.07800
C2494       C  0.67641472  0.25115222  0.92704469    -0.06000
Cl2495     Cl  0.76129360  0.27132179  0.48945363    -0.49000
C2496       C  0.66324094  0.26444604  0.55716572     0.43500
H2497       H  0.80205559  0.17869760  0.92604175     0.07800
N2498       N  0.67176143  0.30294381  0.93453588    -0.45700
C2499       C  0.64838816  0.25949432  0.58898093     0.04100
C2500       C  0.62600547  0.27991639  0.60195786    -0.12100
C2501       C  0.61195753  0.27220664  0.63188147     0.01600
C2502       C  0.62340373  0.24611455  0.64883066    -0.10600
C2503       C  0.63593424  0.22177935  0.63162895     0.04100
C2504       C  0.65269966  0.23009367  0.60431068    -0.10000
H2505       H  0.61742652  0.29914274  0.58763534     0.09700
H2506       H  0.61225114  0.23935061  0.67118336     0.07200
H2507       H  0.66513827  0.21166490  0.59275017     0.07000
C2508       C  0.86204806  0.24247306  0.59936264     0.04100
C2509       C  0.86103539  0.20969593  0.60621202    -0.12100
C2510       C  0.87732579  0.19680192  0.63138252     0.01600
C2511       C  0.88986656  0.21716192  0.65313907    -0.10600
C2512       C  0.89716726  0.24856837  0.64395233     0.04100
C2513       C  0.88171421  0.26196381  0.61766393    -0.10000
H2514       H  0.85079392  0.19355678  0.58974699     0.09700
H2515       H  0.90182228  0.20645776  0.67283871     0.07200
H2516       H  0.88694261  0.28602621  0.60999379     0.07000
C2517       C  0.59097748  0.26571525  0.86311760     0.04100
C2518       C  0.61976936  0.27873840  0.87277459    -0.12100
C2519       C  0.62872796  0.27622919  0.90490351     0.01600
C2520       C  0.60873090  0.26023845  0.92643061    -0.10600
C2521       C  0.58302392  0.24342931  0.91601127     0.04100
C2522       C  0.57335645  0.24735072  0.88499998    -0.10000
H2523       H  0.63568255  0.28845446  0.85511729     0.09700
H2524       H  0.61621889  0.25600933  0.95044697     0.07200
H2525       H  0.55314271  0.23422372  0.87742640     0.07000
C2526       C  0.92811842  0.25033148  0.87773959     0.04100
C2527       C  0.93630579  0.22445795  0.89726926    -0.12100
C2528       C  0.92083030  0.21820949  0.92603811     0.01600
C2529       C  0.89810583  0.23835490  0.93596594    -0.10600
C2530       C  0.88684922  0.26172820  0.91555510     0.04100
C2531       C  0.90257089  0.26863254  0.88668177    -0.10000
H2532       H  0.95446078  0.20884171  0.89009657     0.09700
H2533       H  0.88610021  0.23285817  0.95818169     0.07200
H2534       H  0.89377818  0.28628814  0.87049012     0.07000
N2535       N  0.00891158  0.10657802  0.99698426    -0.35700
N2536       N  0.55037938  0.11288076  0.54917590    -0.56200
N2537       N  0.01303048  0.09698203  0.59494520    -0.35700
N2538       N  0.96700872  0.09131297  0.54373004    -0.56200
C2539       C  0.53039296  0.11669279  0.98546244     0.27900
C2540       C  0.98356431  0.10853373  0.97890967     0.27900
C2541       C  0.52774386  0.10858528  0.61632571     0.27900
C2542       C  0.98630041  0.09395234  0.61211781     0.27900
C2543       C  0.56866491  0.13123783  0.02416245     0.36500
C2544       C  0.56923340  0.11309644  0.57417152     0.36500
C2545       C  0.94390496  0.09021117  0.01857561     0.36500
C2546       C  0.94761256  0.08665189  0.56869898     0.36500
C2547       C  0.52334283  0.10867962  0.95502323    -0.20900
C2548       C  0.99152621  0.12263747  0.95002660    -0.20900
C2549       C  0.51568455  0.11837105  0.64491573    -0.20900
C2550       C  0.99241944  0.09934222  0.64352959    -0.20900
C2551       C  0.59669472  0.14388189  0.03286297    -0.22000
C2552       C  0.59897000  0.12236679  0.56407531    -0.22000
C2553       C  0.91381714  0.08188149  0.02685004    -0.22000
C2554       C  0.91720541  0.08722727  0.55841729    -0.22000
C2555       C  0.55670012  0.13366994  0.99384600    -0.17400
C2556       C  0.95266185  0.10556707  0.99002162    -0.17400
C2557       C  0.95576052  0.09386855  0.60001307    -0.17300
C2558       C  0.55859730  0.11570100  0.60582353    -0.17300
H2559       H  0.53799017  0.11139712  0.93428430     0.15600
H2560       H  0.97629435  0.12964501  0.93134852     0.15600
H2561       H  0.52801841  0.12973051  0.66366092     0.15600
H2562       H  0.97571619  0.10001535  0.66279465     0.15600
H2563       H  0.61341130  0.15696491  0.01813975     0.13800
H2564       H  0.61868481  0.12750563  0.57841887     0.13800
H2565       H  0.89384041  0.08255464  0.01183804     0.13800
H2566       H  0.89637389  0.08619642  0.57291183     0.13800
H2567       H  0.00959787  0.09911023  0.02027270     0.27100
H2568       H  0.01502883  0.09574431  0.57075846     0.27100
C2569       C  0.57845492  0.17196455  0.72758246     0.43400
N2570       N  0.54472332  0.20658736  0.74137385     0.02300
C2571       C  0.93964200  0.29128707  0.66577114    -0.05600
H2572       H  0.56988760  0.32975577  0.65112646     0.07800
C2573       C  0.56411671  0.34870108  0.75790544    -0.05900
Co2574     Co  0.00827022  0.23167520  0.69894302     0.74200
N2575       N  0.53632679  0.29343542  0.66641812    -0.25100
Co2576     Co  0.00024746  0.31365674  0.70277933     0.74100
C2577       C  0.57473426  0.36797486  0.73042288     0.43500
N2578       N  0.54404175  0.28130216  0.79742195     0.01900
N2579       N  0.53522352  0.33869258  0.71853734     0.02000
N2580       N  0.94912681  0.23946865  0.66425897    -0.46000
H2581       H  0.56368883  0.17734683  0.67571771     0.07800
N2582       N  0.53667685  0.26249256  0.66419945     0.02300
N2583       N  0.96527979  0.33139489  0.73258187     0.02000
C2584       C  0.92470059  0.35205012  0.75310650     0.43600
N2585       N  0.54508968  0.25050281  0.79481056    -0.24600
C2586       C  0.95639203  0.18102118  0.71503999    -0.05500
N2587       N  0.56557525  0.18694323  0.75208334    -0.45700
N2588       N  0.93876931  0.34526631  0.72523242    -0.45900
C2589       C  0.94463452  0.16535354  0.74401145     0.43400
N2590       N  0.97174240  0.25468155  0.67804939     0.02300
N2591       N  0.97826875  0.24549266  0.80850485    -0.24600
N2592       N  0.54242189  0.20661105  0.71043950    -0.25100
N2593       N  0.97542208  0.27612682  0.81144182     0.01900
H2594       H  0.95870027  0.20514571  0.83374924     0.07800
H2595       H  0.94214171  0.34238741  0.80336580     0.07800
N2596       N  0.96721183  0.28527115  0.67945826    -0.25100
N2597       N  0.53896899  0.33290900  0.74888038    -0.24700
N2598       N  0.97910435  0.20039417  0.75563967     0.02300
C2599       C  0.57854872  0.27778456  0.63905818     0.43700
C2600       C  0.56712949  0.23969332  0.81392605    -0.06000
N2601       N  0.96892667  0.32855232  0.76341382    -0.24700
H2602       H  0.57183708  0.34992971  0.78198753     0.07800
N2603       N  0.56066514  0.25270299  0.64817721    -0.46000
H2604       H  0.57135098  0.21504656  0.81886327     0.07800
C2605       C  0.94445945  0.25514796  0.84682888     0.43500
C2606       C  0.56249418  0.18506801  0.69963767    -0.05500
Co2607     Co  0.01222019  0.22673050  0.77997704     0.73800
N2608       N  0.56365191  0.29207395  0.81869379    -0.45700
C2609       C  0.92756799  0.26031345  0.65581740     0.43800
N2610       N  0.96019620  0.17834812  0.76805621    -0.45700
Co2611     Co  0.00587288  0.30640218  0.78506608     0.73900
C2612       C  0.94506874  0.34132862  0.77803681    -0.06000
C2613       C  0.56237755  0.30529674  0.65164280    -0.05600
N2614       N  0.97763002  0.20215618  0.72461967    -0.25100
N2615       N  0.55530596  0.36028958  0.70691911    -0.45900
H2616       H  0.92892776  0.31403753  0.66412378     0.07800
C2617       C  0.95963698  0.23038436  0.82952738    -0.06000
Cl2618     Cl  0.00659999  0.26963438  0.74170339    -0.49000
C2619       C  0.57988500  0.26732183  0.82997394     0.43500
H2620       H  0.95138566  0.17581300  0.69078807     0.07800
N2621       N  0.95569910  0.28305997  0.83459566    -0.45700
C2622       C  0.74777422  0.35815253  0.60820469     0.04100
C2623       C  0.71862364  0.34606092  0.61865881    -0.12100
C2624       C  0.69745502  0.36702776  0.63084518     0.01600
C2625       C  0.70928518  0.39196801  0.64799364    -0.10600
C2626       C  0.74050957  0.40187631  0.64401261     0.04100
C2627       C  0.75966240  0.38550342  0.62268330    -0.10000
H2628       H  0.70903478  0.32549692  0.60730554     0.09700
H2629       H  0.69283531  0.40701824  0.65947767     0.07200
H2630       H  0.78153588  0.39596435  0.61465437     0.07000
C2631       C  0.74247325  0.13111240  0.56172071     0.04100
C2632       C  0.71731462  0.11255523  0.55146024    -0.12100
C2633       C  0.71282861  0.08160604  0.56304749     0.01600
C2634       C  0.73356166  0.06901326  0.58422551    -0.10600
C2635       C  0.75552488  0.08834713  0.59852217     0.04100
C2636       C  0.76105595  0.11921698  0.58631295    -0.10000
H2637       H  0.70119612  0.12205288  0.53460829     0.09700
H2638       H  0.72906872  0.04528413  0.59361443     0.07200
H2639       H  0.77799864  0.13445662  0.59716513     0.07000
C2640       C  0.74576295  0.14403922  0.90037128     0.04100
C2641       C  0.72313337  0.12402982  0.91499189    -0.12100
C2642       C  0.71674128  0.09413768  0.90344522     0.01600
C2643       C  0.73376719  0.08371771  0.87772974    -0.10600
C2644       C  0.75419157  0.10425124  0.86065491     0.04100
C2645       C  0.76102392  0.13430493  0.87262927    -0.10000
H2646       H  0.70989045  0.13189718  0.93513636     0.09700
H2647       H  0.72798863  0.06077117  0.86845861     0.07200
H2648       H  0.77624616  0.15061816  0.85948580     0.07000
C2649       C  0.75578686  0.41282471  0.84434588     0.04100
C2650       C  0.72977741  0.39547518  0.83417354    -0.12100
C2651       C  0.71775205  0.37099086  0.85326224     0.01600
C2652       C  0.73910688  0.35412348  0.87061612    -0.10600
C2653       C  0.76245553  0.37168754  0.88540185     0.04100
C2654       C  0.77212640  0.40100179  0.87092831    -0.10000
H2655       H  0.71450384  0.40560371  0.81688661     0.09700
H2656       H  0.73059940  0.33246346  0.88216346     0.07200
H2657       H  0.78838899  0.41624705  0.88273506     0.07000
N2658       N  0.60177544  0.00044969  0.48955275    -0.35700
N2659       N  0.60002649  0.45629146  0.94216758    -0.56200
N2660       N  0.60226789  0.41005670  0.48286047    -0.35700
N2661       N  0.59023505  0.45585671  0.53213506    -0.56200
C2662       C  0.59308528  0.02451573  0.96653718     0.27900
C2663       C  0.59282045  0.01650960  0.51480668     0.27900
C2664       C  0.61094163  0.38960222  0.96632145     0.27900
C2665       C  0.60711356  0.39219118  0.50945432     0.27900
C2666       C  0.60554708  0.98851644  0.92450653     0.36500
C2667       C  0.60733623  0.43222139  0.92360787     0.36500
C2668       C  0.59692129  0.97735714  0.55700823     0.36500
C2669       C  0.59158013  0.43032382  0.55134468     0.36500
C2670       C  0.58411953  0.05382320  0.97635579    -0.20900
C2671       C  0.58593780  0.04685961  0.50577028    -0.20900
C2672       C  0.62279017  0.36120961  0.97685899    -0.20900
C2673       C  0.62086080  0.36433414  0.50105892    -0.20900
C2674       C  0.61560621  0.98231449  0.89437561    -0.22000
C2675       C  0.61595571  0.44409573  0.89373286    -0.22000
C2676       C  0.60124668  0.96851099  0.58799865    -0.22000
C2677       C  0.59095779  0.43970504  0.58263440    -0.22000
C2678       C  0.60780943  0.01840051  0.93779915    -0.17400
C2679       C  0.60181050  0.00809264  0.54513497    -0.17400
C2680       C  0.60369408  0.40135844  0.54157393    -0.17300
C2681       C  0.61568274  0.40175394  0.93490562    -0.17300
H2682       H  0.58408154  0.07565762  0.96287743     0.15600
H2683       H  0.58102597  0.06545922  0.52155714     0.15600
H2684       H  0.63453865  0.34397973  0.96295577     0.15600
H2685       H  0.62811889  0.34547952  0.51673415     0.15600
H2686       H  0.62351589  0.99916885  0.87627619     0.13800
H2687       H  0.62475363  0.43109960  0.87400894     0.13800
H2688       H  0.60607204  0.98373777  0.60750503     0.13800
H2689       H  0.59336085  0.42496222  0.60358037     0.13800
H2690       H  0.61286188  0.97903143  0.49048714     0.27100
H2691       H  0.59293500  0.43233231  0.48177574     0.27100
C2692       C  0.58426203  0.40083825  0.73632619     0.04100
C2693       C  0.61518543  0.41187022  0.73255281    -0.12100
C2694       C  0.62672893  0.43514110  0.75293764     0.01600
C2695       C  0.60831730  0.44376093  0.77877577    -0.10600
C2696       C  0.57763898  0.43311341  0.78144260     0.04100
C2697       C  0.56475119  0.41580871  0.75751306    -0.10000
H2698       H  0.63049231  0.40114795  0.71563543     0.09700
H2699       H  0.61779827  0.45815796  0.79718627     0.07200
H2700       H  0.54101644  0.40724060  0.76056538     0.07000
C2701       C  0.89160697  0.09428596  0.72883581     0.04100
C2702       C  0.90458426  0.07271315  0.75002222    -0.12100
C2703       C  0.92180394  0.08409347  0.77470709     0.01600
C2704       C  0.93491161  0.11438102  0.77250278    -0.10600
C2705       C  0.92833104  0.13437574  0.74674445     0.04100
C2706       C  0.90489271  0.12497789  0.72577843    -0.10000
H2707       H  0.89418257  0.04925912  0.75278464     0.09700
H2708       H  0.94921024  0.12259114  0.79150548     0.07200
H2709       H  0.89562130  0.14194205  0.70917262     0.07000
C2710       C  0.58918405  0.13895273  0.73334184     0.04100
C2711       C  0.57180580  0.12113133  0.75600076    -0.12100
C2712       C  0.58346329  0.09412906  0.77028497     0.01600
C2713       C  0.61147592  0.08232239  0.75968084    -0.10600
C2714       C  0.62955106  0.09854903  0.73633670     0.04100
C2715       C  0.61848346  0.12751386  0.72350492    -0.10000
H2716       H  0.55010420  0.12995309  0.76500603     0.09700
H2717       H  0.62026045  0.06144643  0.77141371     0.07200
H2718       H  0.63340039  0.14199471  0.70826459     0.07000
C2719       C  0.85621770  0.40726153  0.75974981     0.04100
C2720       C  0.88045391  0.39085815  0.74452194    -0.12100
C2721       C  0.89279462  0.36355952  0.75947438     0.01600
C2722       C  0.87944772  0.35267463  0.78839324    -0.10600
C2723       C  0.86180304  0.37288577  0.80623167     0.04100
C2724       C  0.84610858  0.39642390  0.79011581    -0.10000
H2725       H  0.89161958  0.40099940  0.72349314     0.09700
H2726       H  0.88945989  0.33293110  0.80093775     0.07200
H2727       H  0.83020669  0.41011739  0.80387826     0.07000
N2728       N  0.92559542  0.48122308  0.91360945    -0.35700
N2729       N  0.97390960  0.03909358  0.91486519    -0.56200
N2730       N  0.53814139  0.48750215  0.89609244    -0.35700
N2731       N  0.97080765  0.43629151  0.93247497    -0.56200
C2732       C  0.91090399  0.00693643  0.91283272     0.27900
C2733       C  0.90774178  0.45488648  0.91924232     0.27900
C2734       C  0.52933121  0.02565415  0.90508161     0.27900
C2735       C  0.52561092  0.46346712  0.91408623     0.27900
C2736       C  0.94819155  0.05263029  0.90415387     0.36500
C2737       C  0.49269450  0.06372013  0.88839234     0.36500
C2738       C  0.94861672  0.41511363  0.92520484     0.36500
C2739       C  0.49033168  0.41798025  0.91055689     0.36500
C2740       C  0.88033627  0.99664601  0.91415206    -0.20900
C2741       C  0.87680475  0.46256952  0.91757026    -0.20900
C2742       C  0.51728174  0.01911204  0.93514402    -0.20900
C2743       C  0.51438250  0.47486736  0.94225716    -0.20900
C2744       C  0.95588266  0.08157202  0.88953486    -0.22000
C2745       C  0.48266245  0.09102289  0.87396581    -0.22000
C2746       C  0.96189986  0.38668188  0.91786446    -0.22000
C2747       C  0.48159866  0.38855123  0.89994941    -0.22000
C2748       C  0.92038559  0.03578433  0.89831976    -0.17400
C2749       C  0.91825682  0.42363005  0.91707825    -0.17400
C2750       C  0.51846950  0.43340547  0.90210005    -0.17300
C2751       C  0.52314826  0.05312995  0.88723645    -0.17300
H2752       H  0.86027922  0.01037970  0.90849788     0.15600
H2753       H  0.85705810  0.44649464  0.91896571     0.15600
H2754       H  0.50702359  0.03563299  0.95103671     0.15600
H2755       H  0.50214410  0.46168011  0.96091027     0.15600
H2756       H  0.94072827  0.09761927  0.87751634     0.13800
H2757       H  0.49659677  0.10987755  0.86302858     0.13800
H2758       H  0.95029139  0.36591937  0.90905743     0.13800
H2759       H  0.49653555  0.37111890  0.88992948     0.13800
H2760       H  0.94938268  0.48233979  0.90945336     0.27100
H2761       H  0.54669382  0.48626641  0.87307474     0.27100
C2762       C  0.65781095  0.44998590  0.74875710     0.43400
N2763       N  0.69282367  0.48543717  0.75762307     0.02300
C2764       C  0.79009127  0.06213334  0.64226470    -0.05600
H2765       H  0.80211945  0.43809534  0.66117326     0.07800
C2766       C  0.83847443  0.46307466  0.77367886    -0.05900
Co2767     Co  0.72178709  0.01409955  0.69536050     0.74200
N2768       N  0.77232169  0.47471166  0.67825146    -0.25100
Co2769     Co  0.80292135  0.00993779  0.69522922     0.74100
C2770       C  0.84695709  0.44001429  0.75042394     0.43500
N2771       N  0.77287194  0.48759520  0.80661646     0.01900
N2772       N  0.82176052  0.47790671  0.72811783     0.02000
N2773       N  0.73881883  0.06670012  0.64904773    -0.46000
H2774       H  0.66494735  0.45598352  0.69502768     0.07800
N2775       N  0.74199047  0.47764688  0.67855254     0.02300
N2776       N  0.82793505  0.04750669  0.71522455     0.02000
C2777       C  0.85849865  0.08772902  0.72307830     0.43600
N2778       N  0.74240418  0.48855472  0.80611954    -0.24600
C2779       C  0.67464234  0.07060466  0.70389975    -0.05500
N2780       N  0.67184073  0.46648963  0.77163098    -0.45700
N2781       N  0.84930205  0.06645716  0.70149055    -0.45900
C2782       C  0.66179870  0.08706132  0.73145144     0.43400
N2783       N  0.74965209  0.04527103  0.66859155     0.02300
N2784       N  0.74543550  0.05978382  0.79358416    -0.24600
N2785       N  0.69271956  0.48327549  0.72671634    -0.25100
N2786       N  0.77555707  0.05924141  0.79678864     0.01900
H2787       H  0.70980944  0.08712935  0.81405819     0.07800
H2788       H  0.84240973  0.08909373  0.77494485     0.07800
N2789       N  0.77986649  0.04222836  0.66570645    -0.25100
N2790       N  0.82232019  0.48462075  0.75829225    -0.24700
N2791       N  0.69748070  0.05475127  0.74603996     0.02300
C2792       C  0.74907731  0.43303458  0.65681514     0.43700
C2793       C  0.73079444  0.46424596  0.82326596    -0.06000
N2794       N  0.82353455  0.05392393  0.74520145    -0.24700
H2795       H  0.84221521  0.46268932  0.79883477     0.07800
N2796       N  0.72752891  0.45339335  0.66621368    -0.46000
H2797       H  0.70642848  0.45852194  0.82629470     0.07800
C2798       C  0.76022668  0.09628857  0.82732140     0.43500
C2799       C  0.67163918  0.46129355  0.71880679    -0.05500
Co2800     Co  0.72049940  0.02295525  0.77494986     0.73800
N2801       N  0.78297129  0.46235677  0.82230694    -0.45700
C2802       C  0.76256106  0.07873199  0.63122594     0.43800
N2803       N  0.67727594  0.07522541  0.75634565    -0.45700
Co2804     Co  0.79836274  0.52081602  0.77899574     0.73900
C2805       C  0.83966092  0.08001136  0.75152756    -0.06000
C2806       C  0.77918427  0.44720487  0.66459375    -0.05600
N2807       N  0.69667982  0.05133346  0.71532263    -0.25100
N2808       N  0.83579114  0.45076704  0.72231700    -0.45900
H2809       H  0.81371032  0.06435374  0.63358578     0.07800
C2810       C  0.73419893  0.08347763  0.80984688    -0.06000
Cl2811     Cl  0.76130310  0.01727674  0.73549359    -0.49000
C2812       C  0.75754989  0.44648337  0.83372223     0.43500
H2813       H  0.66642986  0.07081624  0.67994901     0.07800
N2814       N  0.78522948  0.07980433  0.81787058    -0.45700
C2815       C  0.90366266  0.40039473  0.83402924     0.24500
C2816       C  0.87592774  0.38249541  0.83630649    -0.23600
C2817       C  0.86251857  0.37598533  0.86633123     0.19100
C2818       C  0.87656417  0.38797598  0.89352394     0.24500
C2819       C  0.90415236  0.40617226  0.89066187    -0.23500
C2820       C  0.91757781  0.41175077  0.86068348     0.19400
F2821       F  0.94378129  0.42973232  0.85705101    -0.13500
F2822       F  0.91689636  0.40810498  0.80555131    -0.15800
F2823       F  0.86297291  0.38268345  0.92227990    -0.15800
F2824       F  0.83583567  0.35871389  0.86920748    -0.13500
C2825       C  0.53448606  0.04638644  0.82950134     0.24500
C2826       C  0.54102945  0.06173740  0.85783096    -0.23600
C2827       C  0.55998074  0.08900526  0.85642426     0.19400
C2828       C  0.57442578  0.09887255  0.82803343     0.24500
C2829       C  0.56935227  0.08221716  0.80028309    -0.23500
C2830       C  0.54907018  0.05608525  0.80110172     0.19400
F2831       F  0.54218711  0.04104795  0.77414508    -0.13500
F2832       F  0.51209762  0.02365382  0.82890823    -0.15800
F2833       F  0.59244244  0.12548745  0.82729066    -0.15800
F2834       F  0.56228574  0.10767873  0.88175065    -0.13500
C2835       C  0.93175550  0.03978350  0.81213924     0.24500
C2836       C  0.91744681  0.06828899  0.80554813    -0.23600
C2837       C  0.89663579  0.08071110  0.82768789     0.19400
C2838       C  0.89257027  0.06627127  0.85742140     0.24500
C2839       C  0.91033552  0.04024623  0.86547848    -0.23500
C2840       C  0.92825389  0.02578325  0.84200845     0.19400
F2841       F  0.94591676  0.00078051  0.84945706    -0.13500
F2842       F  0.95089041  0.02689405  0.79051109    -0.15800
F2843       F  0.87495380  0.08016289  0.87968539    -0.15800
F2844       F  0.88158230  0.10774909  0.82104663    -0.13500
C2845       C  0.57248715  0.41214093  0.83633506     0.24500
C2846       C  0.56149940  0.43189456  0.81202410    -0.23600
C2847       C  0.53270660  0.44590449  0.81549031     0.19400
C2848       C  0.51682667  0.44317428  0.84426049     0.24500
C2849       C  0.53022187  0.42739316  0.86999776    -0.23500
C2850       C  0.55662942  0.40978354  0.86525678     0.19400
F2851       F  0.56679216  0.39054154  0.88860232    -0.13500
F2852       F  0.59824206  0.39494086  0.83179822    -0.15800
F2853       F  0.48969852  0.45817083  0.84803457    -0.15800
F2854       F  0.52047578  0.46277126  0.79130246    -0.13500
C2855       C  0.66260600  0.36043979  0.87176822     0.24500
C2856       C  0.68982314  0.37896175  0.87215005    -0.23600
C2857       C  0.69229619  0.40292043  0.89458205     0.19400
C2858       C  0.66971790  0.40618496  0.91754868     0.24500
C2859       C  0.64194453  0.38874064  0.91656594    -0.23500
C2860       C  0.63838512  0.36560679  0.89359019     0.19400
F2861       F  0.61163275  0.34856782  0.89207631    -0.13500
F2862       F  0.65930686  0.33845031  0.84945860    -0.15800
F2863       F  0.67377483  0.42871485  0.93945175    -0.15800
F2864       F  0.71723520  0.42262063  0.89567447    -0.13500
C2865       C  0.66539183  0.02623949  0.93349375     0.24500
C2866       C  0.63560851  0.03832843  0.92891061    -0.23600
C2867       C  0.63301452  0.06912174  0.91691938     0.19400
C2868       C  0.65943109  0.08795547  0.91044522     0.24500
C2869       C  0.68909217  0.07563726  0.91448280    -0.23500
C2870       C  0.69183625  0.04445343  0.92561743     0.19400
F2871       F  0.72014916  0.03163558  0.92875053    -0.13500
F2872       F  0.66886458  0.99661572  0.94548607    -0.15800
F2873       F  0.65608257  0.11772131  0.89872061    -0.15800
F2874       F  0.60491600  0.08039196  0.91026652    -0.13500
C2875       C  0.65863355  0.01688689  0.53812059     0.24500
C2876       C  0.63095544  0.02446894  0.55402550    -0.23600
C2877       C  0.63089390  0.05019813  0.57403570     0.19400
C2878       C  0.65759027  0.06928084  0.57644127     0.24500
C2879       C  0.68409577  0.06342329  0.55798370    -0.23500
C2880       C  0.68478017  0.03649656  0.53966442     0.19400
F2881       F  0.71100294  0.02891618  0.52378826    -0.13500
F2882       F  0.66016939  0.99054902  0.52074630    -0.15800
F2883       F  0.65824806  0.09263719  0.59771202    -0.15800
F2884       F  0.60525113  0.05636811  0.59143406    -0.13500
C2885       C  0.64206256  0.36088519  0.61212284     0.24500
C2886       C  0.67175439  0.37495265  0.60947622    -0.23600
C2887       C  0.67845892  0.39621890  0.58417009     0.19400
C2888       C  0.65659056  0.40261427  0.56158062     0.24500
C2889       C  0.62698800  0.38857487  0.56375034    -0.23500
C2890       C  0.61956068  0.36787443  0.58938119     0.19400
F2891       F  0.59050831  0.35545785  0.59280237    -0.13500
F2892       F  0.63477166  0.34130941  0.63700644    -0.15800
F2893       F  0.66385223  0.42395515  0.53805060    -0.15800
F2894       F  0.70666523  0.41070096  0.58099033    -0.13500
C2895       C  0.91383487  0.15972718  0.93323794     0.24500
C2896       C  0.92500448  0.18870737  0.94446115    -0.23600
C2897       C  0.93725161  0.18982341  0.97476534     0.19400
C2898       C  0.94130138  0.16202812  0.99225445     0.24500
C2899       C  0.93364286  0.13254015  0.97948820    -0.23500
C2900       C  0.91796855  0.13172198  0.95080431     0.19400
F2901       F  0.90937341  0.10370937  0.93860748    -0.13500
F2902       F  0.89965239  0.15855630  0.90497013    -0.15800
F2903       F  0.95663642  0.16350426  0.01985528    -0.15800
F2904       F  0.94700873  0.21768846  0.98661182    -0.13500
C2905       C  0.55495282  0.21710384  0.96156166     0.24500
C2906       C  0.57342347  0.21507262  0.93432466    -0.23600
C2907       C  0.58725900  0.18638844  0.92703508     0.19400
C2908       C  0.58296653  0.16005932  0.94702573     0.24500
C2909       C  0.56444172  0.16194834  0.97417442    -0.23500
C2910       C  0.55032801  0.19057950  0.98134425     0.19400
F2911       F  0.53209716  0.19270472  0.00756266    -0.13500
F2912       F  0.54179449  0.24475314  0.96906026    -0.15800
F2913       F  0.59723056  0.13292746  0.94025146    -0.15800
F2914       F  0.60595631  0.18434893  0.90114714    -0.13500
C2915       C  0.94380045  0.14992712  0.60266010     0.24500
C2916       C  0.93619799  0.11905025  0.61307737    -0.23600
C2917       C  0.90850979  0.11317917  0.63042756     0.19400
C2918       C  0.88851560  0.13820027  0.63670370     0.24500
C2919       C  0.89603638  0.16882528  0.62510380    -0.23500
C2920       C  0.92392791  0.17429552  0.60826754     0.19400
F2921       F  0.93186835  0.20360761  0.59687588    -0.13500
F2922       F  0.97004126  0.15617203  0.58534654    -0.15800
F2923       F  0.86187913  0.13254375  0.65342306    -0.15800
F2924       F  0.90052806  0.08338651  0.64021346    -0.13500
C2925       C  0.60280567  0.13770917  0.63810566     0.24500
C2926       C  0.57487386  0.14174489  0.62193364    -0.23600
C2927       C  0.56690012  0.17191538  0.61120166     0.19400
C2928       C  0.58777252  0.19677362  0.61298532     0.24500
C2929       C  0.61558804  0.19346245  0.62936260    -0.23500
C2930       C  0.62305209  0.16376566  0.64206261     0.19400
F2931       F  0.65074277  0.15970446  0.65593137    -0.13500
F2932       F  0.61134557  0.10849238  0.64771947    -0.15800
F2933       F  0.58170843  0.22354160  0.59631074    -0.15800
F2934       F  0.54052806  0.17625375  0.59477389    -0.13500
C2935       C  0.73674499  0.66282287  0.04872919     0.43400
N2936       N  0.73117509  0.70172745  0.01603157     0.02300
C2937       C  0.85304765  0.79868879  0.44384091    -0.05600
H2938       H  0.84206255  0.80745899  0.06330258     0.07800
C2939       C  0.72795274  0.84456016  0.05192883    -0.05900
Co2940     Co  0.80069747  0.72706305  0.48895548     0.74200
N2941       N  0.81757597  0.77825126  0.03019462    -0.25100
Co2942     Co  0.79820481  0.80816705  0.99604964     0.74100
C2943       C  0.75296498  0.85021601  0.07357239     0.43500
N2944       N  0.68828855  0.78472877  0.02081598     0.01900
N2945       N  0.77094326  0.82944546  0.03138995     0.02000
N2946       N  0.84600388  0.74691227  0.43648205    -0.46000
H2947       H  0.78985500  0.66796718  0.04576210     0.07800
N2948       N  0.81417816  0.74741594  0.02784278     0.02300
N2949       N  0.78290587  0.83677222  0.46410772     0.02000
C2950       C  0.77287218  0.86564032  0.42267618     0.43600
N2951       N  0.68655083  0.75416754  0.01623701    -0.24600
C2952       C  0.78955787  0.68626575  0.42954523    -0.05500
N2953       N  0.71570691  0.67941593  0.03246658    -0.45700
N2954       N  0.79600168  0.85206572  0.43922238    -0.45900
C2955       C  0.76212202  0.67520415  0.41284324     0.43400
N2956       N  0.82752470  0.75665572  0.45908177     0.02300
N2957       N  0.70338005  0.75977818  0.44768473    -0.24600
N2958       N  0.76137811  0.70020301  0.01959781    -0.25100
N2959       N  0.70083516  0.79009050  0.45239357     0.01900
H2960       H  0.68297778  0.72827201  0.41497566     0.07800
H2961       H  0.72062194  0.85859591  0.43275274     0.07800
N2962       N  0.83070327  0.78710774  0.46372516    -0.25100
N2963       N  0.74077659  0.83094615  0.02749549    -0.24700
N2964       N  0.74907970  0.70957979  0.44681235     0.02300
C2965       C  0.84226721  0.75327082  0.06928824     0.43700
C2966       C  0.66759358  0.74081137  0.03808920    -0.06000
N2967       N  0.75245099  0.83767406  0.46354114    -0.24700
H2968       H  0.70344050  0.84788148  0.05496053     0.07800
N2969       N  0.82844514  0.73187327  0.05057971    -0.46000
H2970       H  0.66243932  0.71581486  0.04047993     0.07800
C2971       C  0.67086925  0.78055799  0.41248323     0.43500
C2972       C  0.76718006  0.67652935  0.04014634    -0.05500
Co2973     Co  0.72196710  0.72946415  0.48117393     0.73800
N2974       N  0.67200139  0.79302901  0.04617026    -0.45700
C2975       C  0.86325679  0.77182176  0.42531389     0.43800
N2976       N  0.73812998  0.69078069  0.42516204    -0.45700
Co2977     Co  0.71713956  0.81265591  0.99035893     0.73900
C2978       C  0.74424738  0.85614008  0.43966871    -0.06000
C2979       C  0.83506610  0.78431819  0.05560974    -0.05600
N2980       N  0.77911070  0.70721512  0.45025364    -0.25100
N2981       N  0.77929541  0.84005484  0.05949290    -0.45900
H2982       H  0.86190996  0.82271124  0.44314034     0.07800
C2983       C  0.68743841  0.75220359  0.42217163    -0.06000
Cl2984     Cl  0.75484830  0.76988083  0.98956331    -0.49000
C2985       C  0.65803404  0.76635421  0.05837378     0.43500
H2986       H  0.81261471  0.67689726  0.42913309     0.07800
N2987       N  0.68072100  0.80306615  0.43274942    -0.45700
C2988       C  0.64670839  0.76142151  0.09163763     0.04100
C2989       C  0.62394628  0.78039210  0.10602251    -0.12100
C2990       C  0.61287524  0.77253553  0.13715135     0.01600
C2991       C  0.62729815  0.74782973  0.15352055    -0.10600
C2992       C  0.63964532  0.72390597  0.13564170     0.04100
C2993       C  0.65432731  0.73290570  0.10720057    -0.10000
H2994       H  0.61265322  0.79819609  0.09198605     0.09700
H2995       H  0.61816281  0.74088492  0.17672500     0.07200
H2996       H  0.66716173  0.71519290  0.09494066     0.07000
C2997       C  0.86008516  0.74404282  0.09802991     0.04100
C2998       C  0.85706548  0.71221201  0.10803360    -0.12100
C2999       C  0.87573839  0.69987724  0.13149513     0.01600
C3000       C  0.89208026  0.72068188  0.15016459    -0.10600
C3001       C  0.90026082  0.75103140  0.13829598     0.04100
C3002       C  0.88309042  0.76344398  0.11249950    -0.10000
H3003       H  0.84360783  0.69569452  0.09448382     0.09700
H3004       H  0.90539994  0.71034054  0.16907721     0.07200
H3005       H  0.88911898  0.78645247  0.10236358     0.07000
C3006       C  0.59587806  0.76254327  0.36869548     0.04100
C3007       C  0.62460678  0.77781257  0.37500456    -0.12100
C3008       C  0.63747980  0.77541915  0.40563418     0.01600
C3009       C  0.62095542  0.75834164  0.42923761    -0.10600
C3010       C  0.59556400  0.73962976  0.42176335     0.04100
C3011       C  0.58239492  0.74245369  0.39206124    -0.10000
H3012       H  0.63734876  0.78951649  0.35587279     0.09700
H3013       H  0.63104827  0.75512824  0.45234308     0.07200
H3014       H  0.56224341  0.72799681  0.38686038     0.07000
C3015       C  0.93309982  0.75376340  0.37442072     0.04100
C3016       C  0.94494473  0.73000471  0.39444019    -0.12100
C3017       C  0.93321577  0.72527282  0.42520019     0.01600
C3018       C  0.91057187  0.74493992  0.43645687    -0.10600
C3019       C  0.89553214  0.76565173  0.41603603     0.04100
C3020       C  0.90747960  0.77108638  0.38510011    -0.10000
H3021       H  0.96278760  0.71462466  0.38601256     0.09700
H3022       H  0.90098320  0.74024615  0.45998430     0.07200
H3023       H  0.89571176  0.78670077  0.36891591     0.07000
N3024       N  0.00874728  0.61378382  0.50721475    -0.35700
N3025       N  0.55890806  0.61439685  0.05040909    -0.56200
N3026       N  0.01334458  0.59740928  0.10134182    -0.35700
N3027       N  0.96837271  0.59114042  0.04906088    -0.56200
C3028       C  0.52934187  0.62688106  0.48643540     0.27900
C3029       C  0.98445068  0.60699951  0.48917506     0.27900
C3030       C  0.53426577  0.60772618  0.11752253     0.27900
C3031       C  0.98592481  0.60015278  0.11709835     0.27900
C3032       C  0.56925449  0.62283783  0.52792437     0.36500
C3033       C  0.57612465  0.61935319  0.07602788     0.36500
C3034       C  0.94268550  0.60420978  0.52853218     0.36500
C3035       C  0.94912008  0.58591077  0.07402173     0.36500
C3036       C  0.51884373  0.64018112  0.45854446    -0.20900
C3037       C  0.99396960  0.60583880  0.45812427    -0.20900
C3038       C  0.52237733  0.61228319  0.14762613    -0.20900
C3039       C  0.99130349  0.61190081  0.14678131    -0.20900
C3040       C  0.59970610  0.62469038  0.53682100    -0.22000
C3041       C  0.60416969  0.63389595  0.06659137    -0.22000
C3042       C  0.91284253  0.60916082  0.53864984    -0.22000
C3043       C  0.91901179  0.58230291  0.06338051    -0.22000
C3044       C  0.55874645  0.63384201  0.49870563    -0.17400
C3045       C  0.95416974  0.61303209  0.49844153    -0.17400
C3046       C  0.95575481  0.59720358  0.10434135    -0.17300
C3047       C  0.56449385  0.61852548  0.10771252    -0.17300
H3048       H  0.53123046  0.65540061  0.44163196     0.15600
H3049       H  0.97892822  0.60546724  0.43837468     0.15600
H3050       H  0.53455145  0.62143062  0.16764925     0.15600
H3051       H  0.97416191  0.61740908  0.16460181     0.15600
H3052       H  0.61940516  0.63336128  0.52284694     0.13800
H3053       H  0.62237859  0.64279178  0.08128703     0.13800
H3054       H  0.89393022  0.61803019  0.52485127     0.13800
H3055       H  0.89809323  0.58054171  0.07774162     0.13800
H3056       H  0.00734940  0.62175943  0.52992428     0.27100
H3057       H  0.01627150  0.58995622  0.07841217     0.27100
C3058       C  0.57675834  0.66670453  0.23881397     0.43400
N3059       N  0.54509938  0.70345956  0.25098495     0.02300
C3060       C  0.94439687  0.79273565  0.15894300    -0.05600
H3061       H  0.56944019  0.82796366  0.15786375     0.07800
C3062       C  0.56476186  0.84387717  0.26843559    -0.05900
Co3063     Co  0.01122798  0.73148359  0.19315626     0.74200
N3064       N  0.53802112  0.79056463  0.17512042    -0.25100
Co3065     Co  0.00518775  0.81315374  0.19721735     0.74100
C3066       C  0.57638218  0.86349100  0.24174033     0.43500
N3067       N  0.54347466  0.77781394  0.30682281     0.01900
N3068       N  0.53664996  0.83530175  0.22805434     0.02000
N3069       N  0.95320552  0.74095044  0.15606045    -0.46000
H3070       H  0.56379782  0.67174575  0.18629116     0.07800
N3071       N  0.53926112  0.75958488  0.17346950     0.02300
N3072       N  0.97024357  0.83197830  0.22646438     0.02000
C3073       C  0.92972870  0.85346226  0.24633617     0.43600
N3074       N  0.54461105  0.74708736  0.30401492    -0.24600
C3075       C  0.95871749  0.68164822  0.20692931    -0.05500
N3076       N  0.56437111  0.68279541  0.26265437    -0.45700
N3077       N  0.94398149  0.84609549  0.21870715    -0.45900
C3078       C  0.94611877  0.66531851  0.23506629     0.43400
N3079       N  0.97581790  0.75539942  0.17075321     0.02300
N3080       N  0.97839483  0.74593215  0.30245215    -0.24600
N3081       N  0.54355532  0.70312322  0.21997007    -0.25100
N3082       N  0.97714062  0.77673278  0.30546596     0.01900
H3083       H  0.95776357  0.70672050  0.32872843     0.07800
H3084       H  0.94631051  0.84377461  0.29688059     0.07800
N3085       N  0.97173262  0.78598805  0.17284533    -0.25100
N3086       N  0.53954877  0.82899224  0.25842776    -0.24700
N3087       N  0.97956005  0.70044795  0.24883857     0.02300
C3088       C  0.57985039  0.77614625  0.14696323     0.43700
C3089       C  0.56736886  0.73622347  0.32212873    -0.06000
N3090       N  0.97348131  0.82938148  0.25736358    -0.24700
H3091       H  0.57188378  0.84440673  0.29275056     0.07800
N3092       N  0.56337487  0.75038690  0.15714705    -0.46000
H3093       H  0.57237078  0.71160940  0.32620354     0.07800
C3094       C  0.94589785  0.75742269  0.34169844     0.43500
C3095       C  0.56262833  0.68024575  0.21002576    -0.05500
Co3096     Co  0.01242538  0.72574465  0.27463914     0.73800
N3097       N  0.56403717  0.78869307  0.32711914    -0.45700
C3098       C  0.93198814  0.76229758  0.14763752     0.43800
N3099       N  0.96063312  0.67778298  0.26005699    -0.45700
Co3100     Co  0.00919783  0.80587437  0.27962521     0.73900
C3101       C  0.94968278  0.84272353  0.27159917    -0.06000
C3102       C  0.56308504  0.80319719  0.15934741    -0.05600
N3103       N  0.97927827  0.70271249  0.21775276    -0.25100
N3104       N  0.55747194  0.85672382  0.21742817    -0.45900
H3105       H  0.93399671  0.81566703  0.15787018     0.07800
C3106       C  0.95937100  0.73185232  0.32390949    -0.06000
Cl3107     Cl  0.00933540  0.76906107  0.23621386    -0.49000
C3108       C  0.58081593  0.76389473  0.33734881     0.43500
H3109       H  0.95508287  0.67655429  0.18238017     0.07800
N3110       N  0.95845565  0.78461206  0.32913839    -0.45700
C3111       C  0.74660767  0.85641757  0.10736388     0.04100
C3112       C  0.71810856  0.84360987  0.11878194    -0.12100
C3113       C  0.69722424  0.86393795  0.13246295     0.01600
C3114       C  0.70942734  0.88852792  0.14975551    -0.10600
C3115       C  0.74015922  0.89930315  0.14420245     0.04100
C3116       C  0.75863452  0.88374412  0.12170501    -0.10000
H3117       H  0.70829049  0.82326433  0.10723411     0.09700
H3118       H  0.69324625  0.90291397  0.16245879     0.07200
H3119       H  0.77987748  0.89485386  0.11273102     0.07000
C3120       C  0.73015397  0.63179692  0.06446371     0.04100
C3121       C  0.70488004  0.61289494  0.05478318    -0.12100
C3122       C  0.69960319  0.58275398  0.06843438     0.01600
C3123       C  0.71935272  0.57167760  0.09131498    -0.10600
C3124       C  0.74201295  0.59137554  0.10398055     0.04100
C3125       C  0.74831058  0.62115708  0.08983452    -0.10000
H3126       H  0.68949671  0.62142896  0.03673113     0.09700
H3127       H  0.71446900  0.54858872  0.10208374     0.07200
H3128       H  0.76582580  0.63655514  0.09954774     0.07000
C3129       C  0.75731566  0.64267997  0.40249442     0.04100
C3130       C  0.73598995  0.62303830  0.41964920    -0.12100
C3131       C  0.72876576  0.59274689  0.40946676     0.01600
C3132       C  0.74398573  0.58167353  0.38290784    -0.10600
C3133       C  0.76251711  0.60203278  0.36359108     0.04100
C3134       C  0.77019659  0.63232410  0.37398675    -0.10000
H3135       H  0.72383694  0.63181735  0.44008812     0.09700
H3136       H  0.73738979  0.55858482  0.37449179     0.07200
H3137       H  0.78384878  0.64847564  0.35895428     0.07000
C3138       C  0.76579994  0.91227451  0.34594422     0.04100
C3139       C  0.74046543  0.89411414  0.33540410    -0.12100
C3140       C  0.72850221  0.86965663  0.35464058     0.01600
C3141       C  0.74993890  0.85330098  0.37238388    -0.10600
C3142       C  0.77251701  0.87145243  0.38769463     0.04100
C3143       C  0.78170314  0.90105610  0.37321801    -0.10000
H3144       H  0.72528187  0.90381237  0.31777343     0.09700
H3145       H  0.74170807  0.83145689  0.38377392     0.07200
H3146       H  0.79718695  0.91683327  0.38537418     0.07000
N3147       N  0.59294081  0.49909685  0.99174237    -0.35700
N3148       N  0.60979864  0.95781274  0.44001315    -0.56200
N3149       N  0.59687660  0.90924157  0.98949605    -0.35700
N3150       N  0.58550773  0.95460468  0.03986878    -0.56200
C3151       C  0.59951219  0.52377211  0.45849324     0.27900
C3152       C  0.58280694  0.51491479  0.01679008     0.27900
C3153       C  0.61769239  0.89034388  0.46401305     0.27900
C3154       C  0.60225963  0.89094553  0.01559584     0.27900
C3155       C  0.61500905  0.48866541  0.41762653     0.36500
C3156       C  0.61868131  0.93404131  0.42185065     0.36500
C3157       C  0.58610040  0.47589415  0.05924118     0.36500
C3158       C  0.58944855  0.92908815  0.05872193     0.36500
C3159       C  0.58673773  0.55194977  0.46689563    -0.20900
C3160       C  0.57379714  0.54459513  0.00727735    -0.20900
C3161       C  0.62619308  0.86053440  0.47427217    -0.20900
C3162       C  0.61542143  0.86303357  0.00634235    -0.20900
C3163       C  0.62590803  0.48215881  0.38791858    -0.22000
C3164       C  0.62903944  0.94626759  0.39254905    -0.22000
C3165       C  0.58885052  0.46703679  0.09049099    -0.22000
C3166       C  0.59196651  0.93848735  0.08990581    -0.22000
C3167       C  0.61634817  0.51858504  0.43090087    -0.17400
C3168       C  0.59074087  0.50676393  0.04763309    -0.17400
C3169       C  0.60050370  0.89996733  0.04784398    -0.17300
C3170       C  0.62527455  0.90306999  0.43331627    -0.17300
H3171       H  0.58354979  0.57254895  0.45210036     0.15600
H3172       H  0.56653230  0.56304120  0.02246241     0.15600
H3173       H  0.63688577  0.84253554  0.46043448     0.15600
H3174       H  0.62302944  0.84390812  0.02148379     0.15600
H3175       H  0.63495287  0.49876097  0.37012063     0.13800
H3176       H  0.63887235  0.93346723  0.37317374     0.13800
H3177       H  0.59169133  0.48233431  0.11033519     0.13800
H3178       H  0.59695066  0.92390455  0.11039483     0.13800
H3179       H  0.60512672  0.47826080  0.99283250     0.27100
H3180       H  0.58789062  0.93164213  0.98913215     0.27100
C3181       C  0.58700881  0.89584858  0.24884713     0.04100
C3182       C  0.61752917  0.90726945  0.24267255    -0.12100
C3183       C  0.63026511  0.93113468  0.26173453     0.01600
C3184       C  0.61338168  0.94035334  0.28851193    -0.10600
C3185       C  0.58297823  0.92947814  0.29362625     0.04100
C3186       C  0.56901226  0.91047565  0.27169266    -0.10000
H3187       H  0.63165715  0.89663779  0.22467000     0.09700
H3188       H  0.62371686  0.95588516  0.30548981     0.07200
H3189       H  0.54553975  0.90189824  0.27657544     0.07000
C3190       C  0.89028662  0.59670048  0.22125237     0.04100
C3191       C  0.90618570  0.57264797  0.23671274    -0.12100
C3192       C  0.92813448  0.58089756  0.25870368     0.01600
C3193       C  0.94281021  0.61049079  0.25620379    -0.10600
C3194       C  0.93126840  0.63373604  0.23582029     0.04100
C3195       C  0.90360976  0.62738229  0.21970849    -0.10000
H3196       H  0.89506971  0.54950839  0.23934229     0.09700
H3197       H  0.96070183  0.61645258  0.27277169     0.07200
H3198       H  0.89147748  0.64661048  0.20865376     0.07000
C3199       C  0.58667995  0.63379178  0.24573071     0.04100
C3200       C  0.57048201  0.61741983  0.27047944    -0.12100
C3201       C  0.58264521  0.59093144  0.28543808     0.01600
C3202       C  0.61044248  0.57901642  0.27422740    -0.10600
C3203       C  0.62698177  0.59397937  0.24889457     0.04100
C3204       C  0.61492416  0.62155187  0.23449595    -0.10000
H3205       H  0.54928603  0.62682765  0.28006404     0.09700
H3206       H  0.62003090  0.55883375  0.28646529     0.07200
H3207       H  0.62853850  0.63466021  0.21679353     0.07000
C3208       C  0.85924085  0.90641023  0.25107760     0.04100
C3209       C  0.88492390  0.89128582  0.23696938    -0.12100
C3210       C  0.89740667  0.86415941  0.25205523     0.01600
C3211       C  0.88327724  0.85267265  0.28041754    -0.10600
C3212       C  0.86346666  0.87180582  0.29720931     0.04100
C3213       C  0.84720029  0.89417151  0.28011322    -0.10000
H3214       H  0.89699744  0.90238640  0.21692954     0.09700
H3215       H  0.89368567  0.83354424  0.29354413     0.07200
H3216       H  0.82990178  0.90711351  0.29291449     0.07000
N3217       N  0.92655591  0.98210249  0.40751004    -0.35700
N3218       N  0.96845953  0.54019350  0.40377479    -0.56200
N3219       N  0.54153578  0.99585760  0.40693235    -0.35700
N3220       N  0.96990563  0.93432348  0.42265353    -0.56200
C3221       C  0.90609290  0.50740416  0.39691518     0.27900
C3222       C  0.90761179  0.95637100  0.41247304     0.27900
C3223       C  0.53159229  0.51763767  0.41911541     0.27900
C3224       C  0.52990281  0.97195047  0.42566257     0.27900
C3225       C  0.94278642  0.55426131  0.39382005     0.36500
C3226       C  0.49720328  0.56030323  0.41007981     0.36500
C3227       C  0.94651718  0.91431332  0.41617944     0.36500
C3228       C  0.49808460  0.92375534  0.42385749     0.36500
C3229       C  0.87623355  0.49603254  0.39314178    -0.20900
C3230       C  0.87708738  0.96556436  0.41187970    -0.20900
C3231       C  0.52032035  0.50854278  0.44891882    -0.20900
C3232       C  0.51645884  0.98406115  0.45254258    -0.20900
C3233       C  0.95051392  0.58450632  0.38211415    -0.22000
C3234       C  0.48793956  0.58898857  0.39795210    -0.22000
C3235       C  0.95822000  0.88554106  0.40735187    -0.22000
C3236       C  0.49191049  0.89302815  0.41510941    -0.22000
C3237       C  0.91620705  0.53709036  0.38452334    -0.17400
C3238       C  0.91650110  0.92464824  0.40903987    -0.17400
C3239       C  0.52523290  0.94081438  0.41501294    -0.17300
C3240       C  0.52626957  0.54722252  0.40441442    -0.17300
H3241       H  0.85675361  0.50917147  0.38461500     0.15600
H3242       H  0.85670601  0.95031332  0.41292253     0.15600
H3243       H  0.51112802  0.52376612  0.46675001     0.15600
H3244       H  0.50426501  0.97104854  0.47134512     0.15600
H3245       H  0.93552074  0.60163582  0.37154182     0.13800
H3246       H  0.50228428  0.60767650  0.38731958     0.13800
H3247       H  0.94530515  0.86554079  0.39861710     0.13800
H3248       H  0.50843617  0.87608842  0.40704210     0.13800
H3249       H  0.95023908  0.98231884  0.40269578     0.27100
H3250       H  0.55137071  0.99394197  0.38451316     0.27100
C3251       C  0.66100046  0.94633362  0.25504382     0.43400
N3252       N  0.69642685  0.98221726  0.26108686     0.02300
C3253       C  0.78078532  0.56716695  0.14427921    -0.05600
H3254       H  0.80160269  0.93725161  0.15767743     0.07800
C3255       C  0.84321903  0.96203250  0.26746367    -0.05900
Co3256     Co  0.71868468  0.51417063  0.20017735     0.74200
N3257       N  0.77175822  0.97277532  0.17685134    -0.25100
Co3258     Co  0.79965201  0.51375247  0.19346982     0.74100
C3259       C  0.85072423  0.93958206  0.24312624     0.43500
N3260       N  0.77924909  0.98648265  0.30539625     0.01900
N3261       N  0.82364439  0.97732071  0.22340746     0.02000
N3262       N  0.72990762  0.56891533  0.15521101    -0.46000
H3263       H  0.66472124  0.95176383  0.20092612     0.07800
N3264       N  0.74138233  0.97476093  0.17908161     0.02300
N3265       N  0.82489371  0.55129599  0.21274577     0.02000
C3266       C  0.85660055  0.59080974  0.21950646     0.43600
N3267       N  0.74874840  0.98690546  0.30687121    -0.24600
C3268       C  0.67057095  0.56803213  0.21345756    -0.05500
N3269       N  0.67646923  0.96325456  0.27663800    -0.45700
N3270       N  0.84488092  0.57092873  0.19790311    -0.45900
C3271       C  0.65879036  0.58280004  0.24226595     0.43400
N3272       N  0.74314620  0.54737236  0.17282313     0.02300
N3273       N  0.74815513  0.55763684  0.29736499    -0.24600
N3274       N  0.69441009  0.97974211  0.23027811    -0.25100
N3275       N  0.77854806  0.55802158  0.29775280     0.01900
H3276       H  0.71371452  0.58339697  0.32182221     0.07800
H3277       H  0.84608087  0.58908609  0.27286634     0.07800
N3278       N  0.77319530  0.54595765  0.16748491    -0.25100
N3279       N  0.82587693  0.98369886  0.25358706    -0.24700
N3280       N  0.69655873  0.55219451  0.25364735     0.02300
C3281       C  0.74850397  0.93053293  0.15674898     0.43700
C3282       C  0.73874076  0.96301301  0.32567945    -0.06000
N3283       N  0.82353599  0.55599801  0.24332770    -0.24700
H3284       H  0.84827036  0.96087719  0.29235740     0.07800
N3285       N  0.72689163  0.95014088  0.16752371    -0.46000
H3286       H  0.71470145  0.95690379  0.33056518     0.07800
C3287       C  0.76507496  0.59395445  0.33009064     0.43500
C3288       C  0.67292519  0.95742843  0.22410513    -0.05500
Co3289     Co  0.72262494  0.52076116  0.27965932     0.73800
N3290       N  0.79077853  0.96198759  0.32124782    -0.45700
C3291       C  0.75171447  0.58247717  0.13596789     0.43800
N3292       N  0.67606651  0.57122957  0.26591274    -0.45700
Co3293     Co  0.80252910  0.01989138  0.27577945     0.73900
C3294       C  0.84087641  0.58140778  0.24941441    -0.06000
C3295       C  0.77862203  0.94557989  0.16265045    -0.05600
N3296       N  0.69392205  0.54953888  0.22297819    -0.25100
N3297       N  0.83757128  0.95055278  0.21619119    -0.45900
H3298       H  0.80360300  0.57084373  0.13385384     0.07800
C3299       C  0.73775740  0.58051981  0.31526045    -0.06000
Cl3300     Cl  0.76090038  0.51775068  0.23705727    -0.49000
C3301       C  0.76646749  0.94606674  0.33510537     0.43500
H3302       H  0.66091723  0.56848433  0.19009454     0.07800
N3303       N  0.78960552  0.57862097  0.31801674    -0.45700
C3304       C  0.90244741  0.90292582  0.32544138     0.24500
C3305       C  0.87593945  0.88316335  0.32737509    -0.23600
C3306       C  0.86221211  0.87623663  0.35716410     0.19100
C3307       C  0.87496428  0.88927883  0.38454329     0.24500
C3308       C  0.90165341  0.90885164  0.38202209    -0.23500
C3309       C  0.91520917  0.91509386  0.35224344     0.19400
F3310       F  0.94123017  0.93332943  0.34909270    -0.13500
F3311       F  0.91603178  0.91102792  0.29723574    -0.15800
F3312       F  0.86146180  0.88294849  0.41315720    -0.15800
F3313       F  0.83679081  0.85704436  0.35963401    -0.13500
C3314       C  0.53407647  0.54299206  0.34541331     0.24500
C3315       C  0.54210990  0.55714630  0.37398887    -0.23600
C3316       C  0.56103231  0.58438887  0.37249169     0.19400
C3317       C  0.57490600  0.59475952  0.34383394     0.24500
C3318       C  0.56877423  0.57894334  0.31576957    -0.23500
C3319       C  0.54780055  0.55330138  0.31669008     0.19400
F3320       F  0.53967215  0.53910645  0.28962538    -0.13500
F3321       F  0.51132140  0.52065899  0.34503340    -0.15800
F3322       F  0.59370735  0.62079147  0.34326853    -0.15800
F3323       F  0.56420560  0.60217297  0.39842642    -0.13500
C3324       C  0.93295949  0.53717889  0.29853219     0.24500
C3325       C  0.92262308  0.56715841  0.29032015    -0.23600
C3326       C  0.90293139  0.58302464  0.31115450     0.19400
C3327       C  0.89553304  0.57004401  0.34082693     0.24500
C3328       C  0.90960727  0.54227447  0.35074304    -0.23500
C3329       C  0.92669099  0.52483294  0.32876203     0.19400
F3330       F  0.93983424  0.49734643  0.33761237    -0.13500
F3331       F  0.95038130  0.52075642  0.27798279    -0.15800
F3332       F  0.87850721  0.58676942  0.36147201    -0.15800
F3333       F  0.89183951  0.61175996  0.30310556    -0.13500
C3334       C  0.57719586  0.91235872  0.34976895     0.24500
C3335       C  0.56758275  0.93168919  0.32451512    -0.23600
C3336       C  0.54014206  0.94831824  0.32754776     0.19400
C3337       C  0.52479070  0.94869599  0.35668225     0.24500
C3338       C  0.53763729  0.93385590  0.38324349    -0.23500
C3339       C  0.56186502  0.91314605  0.37901318     0.19400
F3340       F  0.56967545  0.89309776  0.40274577    -0.13500
F3341       F  0.60084257  0.89226241  0.34570984    -0.15800
F3342       F  0.49806555  0.96459060  0.35962180    -0.15800
F3343       F  0.52838350  0.96407646  0.30238398    -0.13500
C3344       C  0.67342838  0.85848589  0.37359301     0.24500
C3345       C  0.70034961  0.87760637  0.37327521    -0.23600
C3346       C  0.70233673  0.90234618  0.39493664     0.19400
C3347       C  0.67965578  0.90599874  0.41762560     0.24500
C3348       C  0.65172380  0.88898420  0.41631690    -0.23500
C3349       C  0.64860404  0.86481193  0.39438455     0.19400
F3350       F  0.62172357  0.84794061  0.39293012    -0.13500
F3351       F  0.67113260  0.83455607  0.35319601    -0.15800
F3352       F  0.68354569  0.92896840  0.43910763    -0.15800
F3353       F  0.72681339  0.92262538  0.39561930    -0.13500
C3354       C  0.67410494  0.52600655  0.43497058     0.24500
C3355       C  0.64531783  0.53818679  0.42598105    -0.23600
C3356       C  0.64448004  0.56953284  0.41494306     0.19400
C3357       C  0.67144088  0.58826949  0.41256678     0.24500
C3358       C  0.70019301  0.57569402  0.42032187    -0.23500
C3359       C  0.70128242  0.54448842  0.43186250     0.19400
F3360       F  0.72880977  0.53173865  0.43935766    -0.13500
F3361       F  0.67599009  0.49602136  0.44646479    -0.15800
F3362       F  0.66974086  0.61813628  0.40057069    -0.15800
F3363       F  0.61782869  0.58161561  0.40483025    -0.13500
C3364       C  0.64794423  0.51515115  0.04479458     0.24500
C3365       C  0.61920685  0.52350473  0.05792379    -0.23600
C3366       C  0.61787197  0.54985447  0.07698187     0.19400
C3367       C  0.64423016  0.56930883  0.08014804     0.24500
C3368       C  0.67149299  0.56356477  0.06293407    -0.23500
C3369       C  0.67363607  0.53549612  0.04647517     0.19400
F3370       F  0.70073847  0.52763815  0.03241633    -0.13500
F3371       F  0.65079943  0.48769064  0.02936922    -0.15800
F3372       F  0.64398564  0.59270856  0.10124882    -0.15800
F3373       F  0.59146847  0.55586664  0.09315902    -0.13500
C3374       C  0.64128948  0.85835526  0.11593527     0.24500
C3375       C  0.67088806  0.87231965  0.11222896    -0.23600
C3376       C  0.67674173  0.89389681  0.08698198     0.19400
C3377       C  0.65419906  0.90026205  0.06515105     0.24500
C3378       C  0.62459780  0.88642727  0.06849748    -0.23500
C3379       C  0.61800082  0.86555036  0.09416528     0.19400
F3380       F  0.58900587  0.85327028  0.09861618    -0.13500
F3381       F  0.63484277  0.83892151  0.14112083    -0.15800
F3382       F  0.66074177  0.92152199  0.04134654    -0.15800
F3383       F  0.70470929  0.90872783  0.08310302    -0.13500
C3384       C  0.92706269  0.66717480  0.43361393     0.24500
C3385       C  0.93890999  0.69626093  0.44385627    -0.23600
C3386       C  0.95084181  0.69820264  0.47430947     0.19400
C3387       C  0.95234824  0.67118699  0.49360518     0.24500
C3388       C  0.94210270  0.64171837  0.48269585    -0.23500
C3389       C  0.92847255  0.64010649  0.45301947     0.19400
F3390       F  0.91782198  0.61206916  0.44241948    -0.13500
F3391       F  0.91370914  0.66515838  0.40497882    -0.15800
F3392       F  0.96558164  0.67333280  0.52232174    -0.15800
F3393       F  0.96148613  0.72621119  0.48509166    -0.13500
C3394       C  0.57423335  0.71710700  0.47237245     0.24500
C3395       C  0.58781233  0.71258581  0.44269975    -0.23600
C3396       C  0.59732007  0.68239846  0.43431018     0.19400
C3397       C  0.59177681  0.65668759  0.45484977     0.24500
C3398       C  0.57573251  0.66075407  0.48333834    -0.23500
C3399       C  0.56803397  0.69126312  0.49257576     0.19400
F3400       F  0.55221836  0.69555242  0.52001629    -0.13500
F3401       F  0.56574828  0.74630632  0.48103726    -0.15800
F3402       F  0.59993429  0.62756796  0.44603059    -0.15800
F3403       F  0.61147631  0.67781471  0.40601348    -0.13500
C3404       C  0.93861058  0.65161938  0.09829852     0.24500
C3405       C  0.93426615  0.62230966  0.11387506    -0.23600
C3406       C  0.90846762  0.61725369  0.13419837     0.19400
C3407       C  0.88782674  0.64197150  0.13940550     0.24500
C3408       C  0.89276471  0.67127594  0.12376302    -0.23500
C3409       C  0.91775680  0.67538616  0.10243820     0.19400
F3410       F  0.92251618  0.70310465  0.08618196    -0.13500
F3411       F  0.96326429  0.65703394  0.07856338    -0.15800
F3412       F  0.86300836  0.63734979  0.15905787    -0.15800
F3413       F  0.90332649  0.58868495  0.14856953    -0.13500
C3414       C  0.60649766  0.63986944  0.14331023     0.24500
C3415       C  0.57874013  0.64372263  0.12675672    -0.23600
C3416       C  0.56984875  0.67401458  0.11762577     0.19400
C3417       C  0.59088725  0.69874918  0.11850917     0.24500
C3418       C  0.61918021  0.69555058  0.13414540    -0.23500
C3419       C  0.62640983  0.66611693  0.14771871     0.19400
F3420       F  0.65343550  0.66243421  0.16302027    -0.13500
F3421       F  0.61495935  0.61079339  0.15338602    -0.15800
F3422       F  0.58434110  0.72519154  0.10156881    -0.15800
F3423       F  0.54304892  0.67835737  0.10193953    -0.13500
C3424       C  0.74789386  0.66042073  0.54710977     0.43400
N3425       N  0.74159464  0.69916464  0.51444705     0.02300
C3426       C  0.84717532  0.79352771  0.94180497    -0.05600
H3427       H  0.84431934  0.80590219  0.56848091     0.07800
C3428       C  0.73187992  0.83950648  0.55540078    -0.05900
Co3429     Co  0.79118542  0.72685825  0.98956435     0.74200
N3430       N  0.82373529  0.77748421  0.53226120    -0.25100
Co3431     Co  0.80402276  0.80812220  0.49884074     0.74100
C3432       C  0.75668744  0.84620390  0.57707559     0.43500
N3433       N  0.69481586  0.77987360  0.52145829     0.01900
N3434       N  0.77564914  0.82738288  0.53437966     0.02000
N3435       N  0.83710935  0.74179666  0.93704894    -0.46000
H3436       H  0.80097212  0.66668078  0.54430590     0.07800
N3437       N  0.82204824  0.74672979  0.52831003     0.02300
N3438       N  0.77744811  0.83689336  0.96085966     0.02000
C3439       C  0.76723704  0.86839419  0.92135781     0.43600
N3440       N  0.69467278  0.74937415  0.51634133    -0.24600
C3441       C  0.77799274  0.68412422  0.93163304    -0.05500
N3442       N  0.72658293  0.67671547  0.53099568    -0.45700
N3443       N  0.79037075  0.85291388  0.93628922    -0.45900
C3444       C  0.75000367  0.67356566  0.91552640     0.43400
N3445       N  0.81883689  0.75392680  0.95845289     0.02300
N3446       N  0.69555760  0.76241556  0.94749797    -0.24600
N3447       N  0.77182787  0.69821117  0.51788926    -0.25100
N3448       N  0.69391989  0.79294451  0.95151394     0.01900
H3449       H  0.67468172  0.73090905  0.91514795     0.07800
H3450       H  0.71522518  0.86383707  0.93375850     0.07800
N3451       N  0.82366966  0.78444865  0.96158366    -0.25100
N3452       N  0.74543316  0.82753799  0.53036344    -0.24700
N3453       N  0.73855944  0.70954576  0.94832010     0.02300
C3454       C  0.84708986  0.75165721  0.57163027     0.43700
C3455       C  0.67599319  0.73475942  0.53770944    -0.06000
N3456       N  0.74709277  0.83917695  0.96134748    -0.24700
H3457       H  0.70721564  0.84164949  0.55852981     0.07800
N3458       N  0.83548641  0.73062726  0.55123816    -0.46000
H3459       H  0.67173567  0.70957969  0.53927497     0.07800
C3460       C  0.66404611  0.78351495  0.91160855     0.43500
C3461       C  0.77812979  0.67454991  0.53836473    -0.05500
Co3462     Co  0.71271951  0.73202634  0.98184877     0.73800
N3463       N  0.67734637  0.78703197  0.54640927    -0.45700
C3464       C  0.85613435  0.76490398  0.92522992     0.43800
N3465       N  0.72666519  0.69027308  0.92756574    -0.45700
Co3466     Co  0.72297549  0.80959723  0.49202062     0.73900
C3467       C  0.73894523  0.85944446  0.93907860    -0.06000
C3468       C  0.83927843  0.78297055  0.55901565    -0.05600
N3469       N  0.76850079  0.70618590  0.95169358    -0.25100
N3470       N  0.78351863  0.83802951  0.56262148    -0.45900
H3471       H  0.85784379  0.81678348  0.94041299     0.07800
C3472       C  0.67975146  0.75485434  0.92194182    -0.06000
Cl3473     Cl  0.76240964  0.76851911  0.49037584    -0.49000
C3474       C  0.66450355  0.75955451  0.55798928     0.43500
H3475       H  0.80070877  0.67396517  0.93124911     0.07800
N3476       N  0.67429558  0.80618622  0.93148482    -0.45700
C3477       C  0.64965014  0.75411779  0.58988193     0.04100
C3478       C  0.62848230  0.77525141  0.60384978    -0.12100
C3479       C  0.61469598  0.76754639  0.63390650     0.01600
C3480       C  0.62552701  0.74070941  0.65018233    -0.10600
C3481       C  0.63690169  0.71613676  0.63245202     0.04100
C3482       C  0.65286954  0.72413252  0.60446835    -0.10000
H3483       H  0.62055513  0.79522503  0.59016633     0.09700
H3484       H  0.61471434  0.73407278  0.67273780     0.07200
H3485       H  0.66404093  0.70537565  0.59213521     0.07000
C3486       C  0.86252976  0.74238251  0.60161813     0.04100
C3487       C  0.86192158  0.71015023  0.61080201    -0.12100
C3488       C  0.87667530  0.69990101  0.63821869     0.01600
C3489       C  0.88674233  0.72253416  0.65912190    -0.10600
C3490       C  0.89550465  0.75257011  0.64698293     0.04100
C3491       C  0.88139736  0.76348129  0.61892329    -0.10000
H3492       H  0.85311330  0.69259373  0.59493956     0.09700
H3493       H  0.89754538  0.71397033  0.68051832     0.07200
H3494       H  0.88728996  0.78669578  0.60919928     0.07000
C3495       C  0.59162564  0.76561618  0.86445734     0.04100
C3496       C  0.61909925  0.78218783  0.87279719    -0.12100
C3497       C  0.63076440  0.77902479  0.90385639     0.01600
C3498       C  0.61379181  0.76055258  0.92615445    -0.10600
C3499       C  0.59007144  0.74055877  0.91668352     0.04100
C3500       C  0.57825366  0.74380926  0.88641780    -0.10000
H3501       H  0.63224769  0.79520588  0.85477399     0.09700
H3502       H  0.62289543  0.75700957  0.94965847     0.07200
H3503       H  0.55930811  0.72839993  0.87970601     0.07000
C3504       C  0.92822394  0.74817193  0.87635069     0.04100
C3505       C  0.93854312  0.72218923  0.89454066    -0.12100
C3506       C  0.92423964  0.71378475  0.92335028     0.01600
C3507       C  0.90023617  0.73170918  0.93459117    -0.10600
C3508       C  0.88779864  0.75599768  0.91614677     0.04100
C3509       C  0.90234044  0.76498329  0.88714077    -0.10000
H3510       H  0.95758868  0.70821456  0.88632814     0.09700
H3511       H  0.88918752  0.72460914  0.95689490     0.07200
H3512       H  0.89243864  0.78311209  0.87225624     0.07000
N3513       N  0.01676978  0.60657615  0.00255647    -0.35700
N3514       N  0.55085636  0.61254358  0.55226651    -0.56200
N3515       N  0.01010173  0.59767387  0.59971320    -0.35700
N3516       N  0.96045909  0.59437445  0.55269295    -0.56200
C3517       C  0.53655735  0.61675598  0.98444813     0.27900
C3518       C  0.99222122  0.60606035  0.98337778     0.27900
C3519       C  0.52789046  0.60288864  0.61858330     0.27900
C3520       C  0.98490878  0.59265314  0.61881060     0.27900
C3521       C  0.57527669  0.62683135  0.02544116     0.36500
C3522       C  0.56949324  0.60812989  0.57709712     0.36500
C3523       C  0.95077021  0.59231550  0.02306204     0.36500
C3524       C  0.94232420  0.59489633  0.57884250     0.36500
C3525       C  0.52843601  0.61566101  0.95308667    -0.20900
C3526       C  0.00134145  0.61656851  0.95340866    -0.20900
C3527       C  0.51532847  0.61200469  0.64717139    -0.20900
C3528       C  0.99433425  0.59089795  0.64985033    -0.20900
C3529       C  0.60343774  0.63872519  0.03473074    -0.22000
C3530       C  0.59993616  0.61521883  0.56778403    -0.22000
C3531       C  0.92006219  0.58700239  0.03121858    -0.22000
C3532       C  0.91231167  0.60261185  0.57036375    -0.22000
C3533       C  0.56397193  0.63084207  0.99481481    -0.17400
C3534       C  0.96102543  0.60498174  0.99362150    -0.17400
C3535       C  0.95370608  0.59751293  0.61000550    -0.17300
C3536       C  0.55885287  0.61021732  0.60870837    -0.17300
H3537       H  0.54242427  0.62254430  0.93266743     0.15600
H3538       H  0.98677884  0.62165365  0.93367454     0.15600
H3539       H  0.52726391  0.62330312  0.66622538     0.15600
H3540       H  0.97955393  0.58875276  0.67067796     0.15600
H3541       H  0.62096563  0.65090258  0.02023425     0.13800
H3542       H  0.61983573  0.61706520  0.58265091     0.13800
H3543       H  0.90039689  0.58862616  0.01585974     0.13800
H3544       H  0.89249948  0.60595491  0.58565068     0.13800
H3545       H  0.01630162  0.60250560  0.02658384     0.27100
H3546       H  0.00959230  0.60275975  0.57614119     0.27100
C3547       C  0.57730345  0.66996589  0.73349369     0.43400
N3548       N  0.54442764  0.70582202  0.74484742     0.02300
C3549       C  0.94042084  0.79325856  0.66659054    -0.05600
H3550       H  0.57337187  0.82672225  0.65262605     0.07800
C3551       C  0.56422346  0.84885051  0.75954038    -0.05900
Co3552     Co  0.00695844  0.73042646  0.69844447     0.74200
N3553       N  0.53896042  0.79127914  0.66806491    -0.25100
Co3554     Co  0.00176895  0.81295965  0.70297744     0.74100
C3555       C  0.57582013  0.86732985  0.73189424     0.43500
N3556       N  0.54305726  0.78131829  0.79934938     0.01900
N3557       N  0.53659422  0.83779093  0.71947783     0.02000
N3558       N  0.94792304  0.74112631  0.66428823    -0.46000
H3559       H  0.56494519  0.67419231  0.68076499     0.07800
N3560       N  0.53908924  0.76024943  0.66658729     0.02300
N3561       N  0.96723442  0.83160057  0.73285098     0.02000
C3562       C  0.92702928  0.85258925  0.75386320     0.43600
N3563       N  0.54379621  0.75047124  0.79702201    -0.24600
C3564       C  0.95306071  0.68155535  0.71416842    -0.05500
N3565       N  0.56408210  0.68581293  0.75702870    -0.45700
N3566       N  0.94090232  0.84600149  0.72579120    -0.45900
C3567       C  0.94078099  0.66616668  0.74312506     0.43400
N3568       N  0.97137734  0.75524271  0.67774749     0.02300
N3569       N  0.97690726  0.74453311  0.80691694    -0.24600
N3570       N  0.54323524  0.70513753  0.71385605    -0.25100
N3571       N  0.97534073  0.77512595  0.81081785     0.01900
H3572       H  0.95489248  0.70424351  0.82985547     0.07800
H3573       H  0.94453999  0.84193943  0.80388430     0.07800
N3574       N  0.96796441  0.78597630  0.67959128    -0.25100
N3575       N  0.53946750  0.83266261  0.75006286    -0.24700
N3576       N  0.97666177  0.69969433  0.75473284     0.02300
C3577       C  0.58159405  0.77421862  0.64194020     0.43700
C3578       C  0.56543912  0.73949123  0.81642240    -0.06000
N3579       N  0.97086056  0.82828714  0.76362287    -0.24700
H3580       H  0.57121893  0.85062660  0.78381858     0.07800
N3581       N  0.56320452  0.74969654  0.65134428    -0.46000
H3582       H  0.56955081  0.71482102  0.82133688     0.07800
C3583       C  0.94276413  0.75419431  0.84476817     0.43500
C3584       C  0.56309331  0.68276438  0.70440648    -0.05500
Co3585     Co  0.01049712  0.72476217  0.77917265     0.73800
N3586       N  0.56257961  0.79208810  0.82073382    -0.45700
C3587       C  0.92710491  0.76297260  0.65642719     0.43800
N3588       N  0.95700691  0.67831619  0.76711741    -0.45700
Co3589     Co  0.00695607  0.80477429  0.78497884     0.73900
C3590       C  0.94731610  0.84125212  0.77852243    -0.06000
C3591       C  0.56552506  0.80237646  0.65354217    -0.05600
N3592       N  0.97515687  0.70177101  0.72375076    -0.25100
N3593       N  0.55705968  0.85910475  0.70799148    -0.45900
H3594       H  0.93043184  0.81638946  0.66568649     0.07800
C3595       C  0.95698289  0.72956045  0.82661532    -0.06000
Cl3596     Cl  0.00658299  0.76824622  0.74135945    -0.49000
C3597       C  0.57832311  0.76708712  0.83222010     0.43500
H3598       H  0.94774966  0.67669274  0.68992933     0.07800
N3599       N  0.95556793  0.78204718  0.83395842    -0.45700
C3600       C  0.75053705  0.85413795  0.61055653     0.04100
C3601       C  0.72215055  0.84185660  0.62273416    -0.12100
C3602       C  0.70134266  0.86289276  0.63538528     0.01600
C3603       C  0.71372258  0.88828975  0.65155681    -0.10600
C3604       C  0.74455340  0.89873366  0.64558507     0.04100
C3605       C  0.76284539  0.88203019  0.62373681    -0.10000
H3606       H  0.71225180  0.82100352  0.61214504     0.09700
H3607       H  0.69763830  0.90336056  0.66353961     0.07200
H3608       H  0.78408710  0.89266257  0.61420420     0.07000
C3609       C  0.74103097  0.62968882  0.56319852     0.04100
C3610       C  0.71520982  0.61171403  0.55354447    -0.12100
C3611       C  0.70772943  0.58277056  0.56846197     0.01600
C3612       C  0.72649188  0.57115546  0.59186743    -0.10600
C3613       C  0.75017815  0.58986669  0.60422033     0.04100
C3614       C  0.75826857  0.61894361  0.58925109    -0.10000
H3615       H  0.70070350  0.62029398  0.53474447     0.09700
H3616       H  0.72024920  0.54853861  0.60299167     0.07200
H3617       H  0.77622320  0.63384509  0.59889980     0.07000
C3618       C  0.74429346  0.64167076  0.90360195     0.04100
C3619       C  0.71986794  0.62313322  0.91726011    -0.12100
C3620       C  0.71287453  0.59331257  0.90577086     0.01600
C3621       C  0.73127544  0.58138208  0.88188157    -0.10600
C3622       C  0.75312189  0.60076795  0.86545654     0.04100
C3623       C  0.76054753  0.63066648  0.87711149    -0.10000
H3624       H  0.70564550  0.63225536  0.93609265     0.09700
H3625       H  0.72538339  0.55827449  0.87303491     0.07200
H3626       H  0.77691283  0.64611078  0.86435951     0.07000
C3627       C  0.75723218  0.91776169  0.84672330     0.04100
C3628       C  0.73110942  0.90048131  0.83681805    -0.12100
C3629       C  0.71957240  0.87553040  0.85545973     0.01600
C3630       C  0.74125750  0.85842411  0.87216206    -0.10600
C3631       C  0.76522862  0.87548395  0.88666344     0.04100
C3632       C  0.77422160  0.90541675  0.87276863    -0.10000
H3633       H  0.71554873  0.91056160  0.81979572     0.09700
H3634       H  0.73296799  0.83648026  0.88329969     0.07200
H3635       H  0.79087384  0.92036939  0.88438695     0.07000
N3636       N  0.59992464  0.50391376  0.48358160    -0.35700
N3637       N  0.59938567  0.96147082  0.94122381    -0.56200
N3638       N  0.60577092  0.90607515  0.48885151    -0.35700
N3639       N  0.59368972  0.95188510  0.53869201    -0.56200
C3640       C  0.59091011  0.51853476  0.96635373     0.27900
C3641       C  0.58897095  0.51953774  0.50831466     0.27900
C3642       C  0.60891618  0.89416787  0.96426370     0.27900
C3643       C  0.60908334  0.88742267  0.51509907     0.27900
C3644       C  0.60633764  0.48311234  0.92503592     0.36500
C3645       C  0.60721108  0.93783498  0.92235901     0.36500
C3646       C  0.59107232  0.48116641  0.55078306     0.36500
C3647       C  0.59734609  0.92649776  0.55780162     0.36500
C3648       C  0.57911758  0.54706190  0.97517764    -0.20900
C3649       C  0.57989534  0.54899173  0.49863512    -0.20900
C3650       C  0.61959286  0.86506111  0.97422659    -0.20900
C3651       C  0.62074474  0.85867499  0.50625723    -0.20900
C3652       C  0.61632315  0.47611639  0.89501056    -0.22000
C3653       C  0.61635946  0.95028020  0.89279485    -0.22000
C3654       C  0.59153491  0.47202237  0.58213499    -0.22000
C3655       C  0.60054264  0.93627355  0.58881857    -0.22000
C3656       C  0.60625695  0.51344103  0.93769661    -0.17400
C3657       C  0.59706520  0.51177935  0.53913849    -0.17400
C3658       C  0.60729525  0.89678276  0.54723734    -0.17300
C3659       C  0.61466338  0.90696594  0.93321781    -0.17300
H3660       H  0.57684484  0.56794615  0.96035075     0.15600
H3661       H  0.57083455  0.56658935  0.51359532     0.15600
H3662       H  0.63090242  0.84773067  0.96001353     0.15600
H3663       H  0.62666825  0.83907834  0.52166827     0.15600
H3664       H  0.62439904  0.49176301  0.87613891     0.13800
H3665       H  0.62571594  0.93769256  0.87305867     0.13800
H3666       H  0.59358593  0.48692827  0.60233445     0.13800
H3667       H  0.60538737  0.92187816  0.60947011     0.13800
H3668       H  0.61171581  0.48284524  0.48489882     0.27100
H3669       H  0.59843796  0.92908796  0.48826751     0.27100
C3670       C  0.58588865  0.90028158  0.73694578     0.04100
C3671       C  0.61685622  0.91123739  0.73251779    -0.12100
C3672       C  0.62826804  0.93619322  0.75105779     0.01600
C3673       C  0.60947034  0.94695635  0.77574378    -0.10600
C3674       C  0.57883578  0.93621125  0.77921378     0.04100
C3675       C  0.56628555  0.91644141  0.75708996    -0.10000
H3676       H  0.63227143  0.89933074  0.71657717     0.09700
H3677       H  0.61872531  0.96298679  0.79289024     0.07200
H3678       H  0.54263009  0.90786681  0.76081381     0.07000
C3679       C  0.88600418  0.59671503  0.72804061     0.04100
C3680       C  0.90116463  0.57364413  0.74556068    -0.12100
C3681       C  0.91907850  0.58337470  0.77037361     0.01600
C3682       C  0.93248678  0.61363679  0.76929795    -0.10600
C3683       C  0.92419451  0.63535645  0.74555598     0.04100
C3684       C  0.89865668  0.62772478  0.72657201    -0.10000
H3685       H  0.89119134  0.54992152  0.74696212     0.09700
H3686       H  0.94786145  0.62061318  0.78791841     0.07200
H3687       H  0.88763333  0.64606727  0.71297259     0.07000
C3688       C  0.58823679  0.63745473  0.74057868     0.04100
C3689       C  0.57187516  0.61998936  0.76451794    -0.12100
C3690       C  0.58375265  0.59247080  0.77784027     0.01600
C3691       C  0.61146568  0.58109789  0.76616397    -0.10600
C3692       C  0.62886005  0.59793520  0.74276538     0.04100
C3693       C  0.61709986  0.62628442  0.72977263    -0.10000
H3694       H  0.55059390  0.62889630  0.77440324     0.09700
H3695       H  0.62064101  0.56001731  0.77716648     0.07200
H3696       H  0.63122284  0.64061820  0.71354702     0.07000
C3697       C  0.85908779  0.90865789  0.76030982     0.04100
C3698       C  0.88318674  0.89189535  0.74529803    -0.12100
C3699       C  0.89550756  0.86486764  0.76071244     0.01600
C3700       C  0.88239790  0.85467153  0.79001277    -0.10600
C3701       C  0.86443739  0.87498480  0.80736883     0.04100
C3702       C  0.84881952  0.89826553  0.79075359    -0.10000
H3703       H  0.89421033  0.90152727  0.72396810     0.09700
H3704       H  0.89227216  0.83508650  0.80290222     0.07200
H3705       H  0.83286565  0.91219047  0.80420485     0.07000
N3706       N  0.92961929  0.98238157  0.91828739    -0.35700
N3707       N  0.96736311  0.53892431  0.91173127    -0.56200
N3708       N  0.53773378  0.99874385  0.89161098    -0.35700
N3709       N  0.97362560  0.93592328  0.93463032    -0.56200
C3710       C  0.90618104  0.50503750  0.90737367     0.27900
C3711       C  0.91108119  0.95623667  0.92225368     0.27900
C3712       C  0.53094544  0.51430164  0.91048249     0.27900
C3713       C  0.52700640  0.97490762  0.91088805     0.27900
C3714       C  0.94256556  0.55092637  0.89743375     0.36500
C3715       C  0.49802623  0.55670101  0.89574051     0.36500
C3716       C  0.95087848  0.91536670  0.92726352     0.36500
C3717       C  0.49438437  0.92742365  0.91139126     0.36500
C3718       C  0.87587086  0.49414665  0.90978272    -0.20900
C3719       C  0.88040770  0.96470113  0.92030903    -0.20900
C3720       C  0.51765603  0.50714486  0.93992756    -0.20900
C3721       C  0.51605138  0.98687268  0.93893863    -0.20900
C3722       C  0.95068866  0.57957942  0.88244029    -0.22000
C3723       C  0.49008896  0.58426831  0.88015316    -0.22000
C3724       C  0.96332788  0.88658648  0.91994537    -0.22000
C3725       C  0.48731005  0.89649838  0.90430750    -0.22000
C3726       C  0.91486676  0.53369234  0.89204111    -0.17400
C3727       C  0.92085447  0.92480222  0.91907970    -0.17400
C3728       C  0.52101791  0.94404261  0.90041988    -0.17300
C3729       C  0.52731976  0.54318511  0.89388711    -0.17300
H3730       H  0.85537646  0.50717066  0.90406769     0.15600
H3731       H  0.86038136  0.94896632  0.92034151     0.15600
H3732       H  0.50809154  0.52365908  0.95632066     0.15600
H3733       H  0.50513277  0.97385116  0.95851384     0.15600
H3734       H  0.93660488  0.59497080  0.86843508     0.13800
H3735       H  0.50531729  0.60175113  0.86873266     0.13800
H3736       H  0.95117932  0.86618932  0.91103745     0.13800
H3737       H  0.50290724  0.87926892  0.89501882     0.13800
H3738       H  0.95346116  0.98321362  0.91459562     0.27100
H3739       H  0.54563897  0.99696348  0.86842681     0.27100
C3740       C  0.65975523  0.95045884  0.74661378     0.43400
N3741       N  0.69512815  0.98596345  0.75476894     0.02300
C3742       C  0.78618416  0.56407349  0.64632200    -0.05600
H3743       H  0.80594392  0.93628324  0.66143689     0.07800
C3744       C  0.84071028  0.96464840  0.77307066    -0.05900
Co3745     Co  0.71896068  0.51501262  0.69900329     0.74200
N3746       N  0.77581843  0.97351029  0.67658816    -0.25100
Co3747     Co  0.79962345  0.51038173  0.69750471     0.74100
C3748       C  0.84982698  0.94122177  0.75037805     0.43500
N3749       N  0.77462178  0.99034332  0.80490717     0.01900
N3750       N  0.82463747  0.97840135  0.72696527     0.02000
N3751       N  0.73536124  0.56947821  0.65535536    -0.46000
H3752       H  0.66744879  0.95494831  0.69282671     0.07800
N3753       N  0.74544831  0.97623356  0.67642022     0.02300
N3754       N  0.82428124  0.54760828  0.71788943     0.02000
C3755       C  0.85274679  0.58957884  0.72464463     0.43600
N3756       N  0.74417941  0.99138259  0.80430523    -0.24600
C3757       C  0.67324041  0.57161747  0.70939951    -0.05500
N3758       N  0.67383144  0.96755787  0.76906666    -0.45700
N3759       N  0.84330188  0.56833280  0.70325061    -0.45900
C3760       C  0.66106428  0.58747712  0.73742532     0.43400
N3761       N  0.74643468  0.54695292  0.67336007     0.02300
N3762       N  0.74401112  0.55728014  0.79796928    -0.24600
N3763       N  0.69529038  0.98292501  0.72392193    -0.25100
N3764       N  0.77412329  0.55654491  0.80096858     0.01900
H3765       H  0.70860671  0.58448871  0.81887020     0.07800
H3766       H  0.83904775  0.58934778  0.77739881     0.07800
N3767       N  0.77641545  0.54350692  0.66933249    -0.25100
N3768       N  0.82459007  0.98575895  0.75700409    -0.24700
N3769       N  0.69608139  0.55431961  0.75097352     0.02300
C3770       C  0.75298744  0.93076415  0.65648741     0.43700
C3771       C  0.73258378  0.96855590  0.82344190    -0.06000
N3772       N  0.82102847  0.55313405  0.74820193    -0.24700
H3773       H  0.84414203  0.96482772  0.79826672     0.07800
N3774       N  0.73127504  0.95139198  0.66484861    -0.46000
H3775       H  0.70818177  0.96341405  0.82717449     0.07800
C3776       C  0.75909029  0.59284058  0.83225286     0.43500
C3777       C  0.67405434  0.96081890  0.71649178    -0.05500
Co3778     Co  0.71870431  0.52139507  0.77856019     0.73800
N3779       N  0.78467111  0.96624402  0.82241744    -0.45700
C3780       C  0.75854766  0.58137357  0.63675541     0.43800
N3781       N  0.67657504  0.57503445  0.76196656    -0.45700
Co3782     Co  0.80021309  0.02264204  0.77633498     0.73900
C3783       C  0.83612144  0.58002728  0.75412114    -0.06000
C3784       C  0.78294568  0.94547367  0.66407553    -0.05600
N3785       N  0.69482156  0.55165951  0.72022989    -0.25100
N3786       N  0.83906985  0.95134565  0.72191112    -0.45900
H3787       H  0.80957878  0.56636862  0.63702600     0.07800
C3788       C  0.73294846  0.58066794  0.81465377    -0.06000
Cl3789     Cl  0.75885529  0.51669062  0.73857418    -0.49000
C3790       C  0.75927443  0.95129230  0.83518928     0.43500
H3791       H  0.66489181  0.57262416  0.68550855     0.07800
N3792       N  0.78402592  0.57650033  0.82248951    -0.45700
C3793       C  0.90355865  0.90622228  0.83514401     0.24500
C3794       C  0.87817264  0.88503627  0.83749834    -0.23600
C3795       C  0.86748220  0.87463697  0.86765889     0.19100
C3796       C  0.88142538  0.88660246  0.89498891     0.24500
C3797       C  0.90645013  0.90836449  0.89206741    -0.23500
C3798       C  0.91753487  0.91735669  0.86187816     0.19400
F3799       F  0.94174017  0.93794667  0.85825508    -0.13500
F3800       F  0.91474212  0.91666814  0.80655970    -0.15800
F3801       F  0.87037800  0.87746165  0.92397492    -0.15800
F3802       F  0.84366168  0.85339658  0.87058771    -0.13500
C3803       C  0.53829920  0.53899635  0.83558083     0.24500
C3804       C  0.54576542  0.55218624  0.86481337    -0.23600
C3805       C  0.56481634  0.57941615  0.86472693     0.19400
C3806       C  0.57714252  0.59235586  0.83640334     0.24500
C3807       C  0.57028851  0.57857624  0.80748550    -0.23500
C3808       C  0.55116326  0.55152057  0.80728840     0.19400
F3809       F  0.54393486  0.53805089  0.77958207    -0.13500
F3810       F  0.51658324  0.51564754  0.83417010    -0.15800
F3811       F  0.59575838  0.61847625  0.83714742    -0.15800
F3812       F  0.57138647  0.59355407  0.89220378    -0.13500
C3813       C  0.92304709  0.53649035  0.80626140     0.24500
C3814       C  0.91296536  0.56716208  0.80078704    -0.23600
C3815       C  0.89327784  0.58107100  0.82306727     0.19400
C3816       C  0.88756023  0.56627194  0.85239387     0.24500
C3817       C  0.90286124  0.53843415  0.85992842    -0.23500
C3818       C  0.91790505  0.52203293  0.83576097     0.19400
F3819       F  0.93143489  0.49408719  0.84211107    -0.13500
F3820       F  0.93960818  0.52155628  0.78385756    -0.15800
F3821       F  0.87193100  0.58171416  0.87510818    -0.15800
F3822       F  0.88115786  0.60981786  0.81710184    -0.13500
C3823       C  0.57343047  0.91834284  0.83498977     0.24500
C3824       C  0.56277037  0.93714934  0.80982504    -0.23600
C3825       C  0.53426017  0.95188756  0.81276663     0.19400
C3826       C  0.51884422  0.95137394  0.84192625     0.24500
C3827       C  0.53214874  0.93660023  0.86831715    -0.23500
C3828       C  0.55763862  0.91761002  0.86397530     0.19400
F3829       F  0.56684803  0.89839648  0.88774052    -0.13500
F3830       F  0.59873708  0.90033242  0.83115777    -0.15800
F3831       F  0.49223815  0.96732587  0.84521525    -0.15800
F3832       F  0.52179221  0.96712295  0.78766034    -0.13500
C3833       C  0.66327117  0.86607661  0.87095308     0.24500
C3834       C  0.69132201  0.88282907  0.87415656    -0.23600
C3835       C  0.69351300  0.90564947  0.89776366     0.19400
C3836       C  0.66953753  0.90955934  0.91907489     0.24500
C3837       C  0.64116326  0.89379981  0.91544157    -0.23500
C3838       C  0.63801197  0.87177315  0.89132877     0.19400
F3839       F  0.61072370  0.85624850  0.88732511    -0.13500
F3840       F  0.66018392  0.84529830  0.84742586    -0.15800
F3841       F  0.67325712  0.93067410  0.94237792    -0.15800
F3842       F  0.71946956  0.92343797  0.90159863    -0.13500
C3843       C  0.65538056  0.54156272  0.95158176     0.24500
C3844       C  0.63221109  0.53612469  0.92920321    -0.23600
C3845       C  0.63548818  0.55096639  0.89939989     0.19400
C3846       C  0.66105815  0.57081390  0.89235334     0.24500
C3847       C  0.68401935  0.57598206  0.91493274    -0.23500
C3848       C  0.68073084  0.56157037  0.94475815     0.19400
F3849       F  0.70297634  0.56533783  0.96663545    -0.13500
F3850       F  0.65452103  0.52572450  0.97952616    -0.15800
F3851       F  0.66384923  0.58443391  0.86312594    -0.15800
F3852       F  0.61487500  0.54525153  0.87660445    -0.13500
C3853       C  0.65340174  0.52612953  0.53029675     0.24500
C3854       C  0.62624140  0.52779569  0.54931861    -0.23600
C3855       C  0.62735971  0.54585889  0.57655840     0.19400
C3856       C  0.65424929  0.56347891  0.58314446     0.24500
C3857       C  0.67936037  0.56479895  0.56154065    -0.23500
C3858       C  0.67905519  0.54538428  0.53561429     0.19400
F3859       F  0.70428754  0.54395328  0.51624183    -0.13500
F3860       F  0.65584946  0.50509842  0.50704599    -0.15800
F3861       F  0.65583432  0.57947684  0.61040925    -0.15800
F3862       F  0.60253991  0.54669594  0.59648179    -0.13500
C3863       C  0.64581115  0.85638744  0.61726805     0.24500
C3864       C  0.67546393  0.87052263  0.61421478    -0.23600
C3865       C  0.68223726  0.89077376  0.58809944     0.19400
C3866       C  0.66060956  0.89592934  0.56507991     0.24500
C3867       C  0.63077727  0.88266059  0.56819380    -0.23500
C3868       C  0.62327390  0.86283241  0.59443743     0.19400
F3869       F  0.59407882  0.85095079  0.59837389    -0.13500
F3870       F  0.63854708  0.83742861  0.64263654    -0.15800
F3871       F  0.66811739  0.91595326  0.54049350    -0.15800
F3872       F  0.71030783  0.90541398  0.58443819    -0.13500
C3873       C  0.92355938  0.65496547  0.93139677     0.24500
C3874       C  0.93225626  0.68516813  0.94161055    -0.23600
C3875       C  0.94497359  0.68836644  0.97150180     0.19400
C3876       C  0.95057965  0.66179546  0.99024166     0.24500
C3877       C  0.94318350  0.63135361  0.97971942    -0.23500
C3878       C  0.92833418  0.62823975  0.95076784     0.19400
F3879       F  0.92060483  0.59921750  0.94049356    -0.13500
F3880       F  0.91085942  0.65140564  0.90261573    -0.15800
F3881       F  0.96647829  0.66551679  0.01721740    -0.15800
F3882       F  0.95329240  0.71728542  0.98191781    -0.13500
C3883       C  0.56509466  0.71446818  0.96384761     0.24500
C3884       C  0.58299311  0.71225677  0.93627957    -0.23600
C3885       C  0.59737355  0.68369491  0.92933168     0.19400
C3886       C  0.59311539  0.65731241  0.94946048     0.24500
C3887       C  0.57425366  0.65930339  0.97645813    -0.23500
C3888       C  0.56051317  0.68808258  0.98369676     0.19400
F3889       F  0.54168853  0.69017104  0.00949103    -0.13500
F3890       F  0.55183271  0.74208896  0.97125876    -0.15800
F3891       F  0.60640517  0.62965496  0.94220282    -0.15800
F3892       F  0.61573663  0.68155863  0.90322290    -0.13500
C3893       C  0.94693912  0.65329586  0.61970024     0.24500
C3894       C  0.93765236  0.62224443  0.62793018    -0.23600
C3895       C  0.90867354  0.61673902  0.64304290     0.19400
C3896       C  0.88822724  0.64184612  0.64699703     0.24500
C3897       C  0.89683176  0.67230837  0.63591274    -0.23500
C3898       C  0.92649293  0.67768630  0.62262444     0.19400
F3899       F  0.93500582  0.70645000  0.61027367    -0.13500
F3900       F  0.97432938  0.65933896  0.60436045    -0.15800
F3901       F  0.85967821  0.63619667  0.65989789    -0.15800
F3902       F  0.89907104  0.58685406  0.65072026    -0.13500
C3903       C  0.60285115  0.63237627  0.64120235     0.24500
C3904       C  0.57490938  0.63635255  0.62503217    -0.23600
C3905       C  0.56696462  0.66655500  0.61432386     0.19400
C3906       C  0.58799199  0.69136630  0.61575432     0.24500
C3907       C  0.61617948  0.68791733  0.63139303    -0.23500
C3908       C  0.62339430  0.65831934  0.64463451     0.19400
F3909       F  0.65097186  0.65416779  0.65873202    -0.13500
F3910       F  0.61109587  0.60323828  0.65135708    -0.15800
F3911       F  0.58170617  0.71828587  0.59941812    -0.15800
F3912       F  0.54052841  0.67091682  0.59802649    -0.13500
loop_ 
_geom_bond_atom_site_label_1 
_geom_bond_atom_site_label_2 
_geom_bond_distance 
_geom_bond_site_symmetry_2 
_ccdc_geom_bond_type 
C1           N19   1.352       .  A
C1           C38   1.465       .  S
C1          C186   1.481       .  S
N2           N19   1.323       .  A
N2           N24   1.320       .  A
N2         Co528   2.093   1_554  S
C3           N28   1.352       .  A
C3           C41   1.475       .  S
C3           H48   1.081       .  S
H4           C45   1.081       .  S
C5           N29   1.323       .  A
C5            C9   1.449       .  S
C5           H34   1.081       .  S
Co6          N46   2.099       .  S
Co6          N22   2.087       .  S
Co6         N513   2.107       .  S
Co6         N503   2.112       .  S
Co6        Cl539   2.435       .  S
N7           C45   1.350       .  A
N7           N14   1.320       .  A
N7           Co8   2.087   1_554  S
Co8          N11   2.139   1_556  S
Co8         N517   2.119       .  S
Co8         N504   2.109       .  S
Co8         Cl50   2.483       .  S
C9           N47   1.363       .  A
C9          C177   1.491       .  S
N10          N17   1.318       .  A
N10          N40   1.335       .  A
N10         Co43   2.112   1_554  S
N11          N29   1.321       .  A
N11          N47   1.339       .  A
N12          C41   1.353       .  A
N12          N22   1.317       .  A
H13          C38   1.082       .  S
N14          N35   1.323       .  A
N14        Co495   2.106   1_554  S
N15          N33   1.319       .  A
N15          N20   1.337       .  A
N15        Co497   2.115       .  S
C16          N20   1.362       .  A
C16          C44   1.465       .  S
C16         C208   1.498       .  S
N17          C32   1.336       .  A
N17        Co528   2.090   1_554  S
C18          N46   1.348       .  A
C18          C21   1.470       .  S
C18          H52   1.082       .  S
C21          N42   1.350       .  A
C21         C195   1.480       .  S
N22          N28   1.317       .  A
N23          C49   1.334       .  A
N23          N25   1.313       .  A
N23         Co39   2.075       .  S
N24          C38   1.346       .  A
N24        Co495   2.092   1_554  S
N25          N53   1.331       .  A
N25        Co532   2.112       .  S
H26          C49   1.082       .  S
H27          C44   1.072       .  S
N28        Co497   2.103       .  S
N29         Co43   2.051   1_554  S
N30          N42   1.320       .  A
N30          N46   1.315       .  A
N30         Co39   2.071       .  S
C31          N35   1.354       .  A
C31          C45   1.466       .  S
C31          C63   1.492       .  S
C32          C51   1.465       .  S
C32          H36   1.081       .  S
N33          C44   1.322       .  A
N33        Co532   2.081       .  S
C37          N53   1.363       .  A
C37          C49   1.467       .  S
C37          C74   1.483       .  S
Co39        N491   2.098       .  S
Co39        N506   2.095       .  S
Co39       Cl539   2.439       .  S
N40          C51   1.359       .  A
C41          C85   1.483       .  S
Co43        N514   2.111       .  S
Co43        N522   2.078       .  S
Co43        Cl50   2.459       .  S
Cl50       Co495   2.431       .  S
Cl50       Co528   2.440       .  S
C51          C54   1.499       .  S
C54          C55   1.427       .  A
C54          C59   1.413       .  A
C55          H60   1.081       .  S
C55          C56   1.427       .  A
C56         C154   1.496       .  S
C56          C57   1.407       .  A
C57          H61   1.086       .  S
C57          C58   1.392       .  A
C58         C484   1.482       .  S
C58          C59   1.395       .  A
C59          H62   1.081       .  S
C63          C64   1.409       .  A
C63          C68   1.428       .  A
C64          H69   1.084       .  S
C64          C65   1.394       .  A
C65         C474   1.473       .  S
C65          C66   1.392       .  A
C66          H70   1.086       .  S
C66          C67   1.405       .  A
C67         C164   1.498       .  S
C67          C68   1.423       .  A
C68          H71   1.083       .  S
C72         C174   1.482       .  S
C72          C73   1.416       .  A
C72          C77   1.401       .  A
C73          H78   1.078       .  S
C73          C74   1.419       .  A
C74          C75   1.400       .  A
C75          H79   1.086       .  S
C75          C76   1.387       .  A
C76         C461   1.461       .  S
C76          C77   1.392       .  A
C77          H80   1.084       .  S
C81         C160   1.498       .  S
C81          C82   1.418       .  A
C81          C86   1.422       .  A
C82          H87   1.083       .  S
C82          C83   1.401       .  A
C83         C451   1.479       .  S
C83          C84   1.384       .  A
C84          H88   1.086       .  S
C84          C85   1.397       .  A
C85          C86   1.418       .  A
C86          H89   1.083       .  S
N90          C95   1.352       .  A
N90        C2050   1.353       .  A
N90         H122   1.032       .  S
N91          C99   1.350       .  A
N91         C587   1.353       .  A
N92          C97   1.359       .  A
N92        C2052   1.363       .  A
N92         H123   1.032       .  S
N93         C101   1.346       .  A
N93         C589   1.355       .  A
C94        N2046   1.346       .  A
C94         C102   1.385       .  A
C94         C110   1.404       .  A
C95         C111   1.418       .  A
C95         C103   1.387       .  A
C96        N2048   1.359       .  A
C96         C104   1.388       .  A
C96         C113   1.422       .  A
C97         C112   1.429       .  A
C97         C105   1.387       .  A
C98         N580   1.354       .  A
C98         C110   1.406       .  A
C98         C106   1.378       .  A
C99         C113   1.424       .  A
C99         C107   1.395       .  A
C100        N582   1.351       .  A
C100        C108   1.382       .  A
C100        C111   1.409       .  A
C101        C109   1.398       .  A
C101        C112   1.423       .  A
C102        H114   1.079       .  S
C102       C2059   1.364       .  A
C103        H115   1.076       .  S
C103       C2058   1.357       .  A
C104        H116   1.083       .  S
C104       C2061   1.372   1_455  A
C105        H117   1.083       .  S
C105       C2060   1.375       .  A
C106        H118   1.083       .  S
C106        C596   1.360       .  A
C107        H119   1.079       .  S
C107        C595   1.361       .  A
C108        H120   1.083       .  S
C108        C598   1.373       .  A
C109        H121   1.080       .  S
C109        C597   1.367       .  A
C110        C464   1.476       .  S
C111        C454   1.490       .  S
C112        C471   1.485       .  S
C113        C481   1.487       .  S
C124        N142   1.346       .  A
C124        C161   1.484       .  S
C124        C265   1.497       .  S
N125        N142   1.317       .  A
N125        N147   1.316       .  A
N125      Co2118   2.063       .  S
C126        N151   1.361       .  A
C126        C164   1.476       .  S
C126        H171   1.081       .  S
H127        C168   1.080       .  S
C128        N152   1.331       .  A
C128        C132   1.466       .  S
C128        H157   1.082       .  S
Co129       N169   2.065       .  S
Co129       N145   2.088       .  S
Co129      N2103   2.138       .  S
Co129      N2093   2.067       .  S
Co129      Cl173   2.466       .  S
N130        C168   1.359       .  A
N130        N137   1.320       .  A
N130      Co2087   2.121       .  S
Co131       N151   2.119       .  S
Co131       N138   2.133       .  S
Co131      N2086   2.142       .  S
Co131      N2090   2.094       .  S
Co131      Cl173   2.477       .  S
C132        N170   1.357       .  A
C132        C247   1.477       .  S
N133        N140   1.315       .  A
N133        N163   1.329       .  A
N133      Co2122   2.091       .  S
N134        N152   1.317       .  A
N134        N170   1.330       .  A
N134      Co2087   2.098       .  S
N135        C164   1.349       .  A
N135        N145   1.317       .  A
H136        C161   1.076       .  S
N137        N158   1.311       .  A
N137      Co2085   2.075       .  S
N138        N156   1.323       .  A
N138        N143   1.340       .  A
C139        N143   1.364       .  A
C139        C167   1.462       .  S
C139        C276   1.507       .  S
N140        C155   1.339       .  A
N140      Co2118   2.087       .  S
C141        N169   1.342       .  A
C141        C144   1.457       .  S
C141        H175   1.082       .  S
C144        N165   1.353       .  A
C144        C260   1.469       .  S
N145        N151   1.320       .  A
N146        C172   1.336       .  A
N146        N148   1.318       .  A
N146       Co162   2.075       .  S
N147        C161   1.358       .  A
N147      Co2085   2.133       .  S
N148        N176   1.336       .  A
N148       Co166   2.128       .  S
H149        C172   1.082       .  S
H150        C167   1.081       .  S
N152      Co2122   2.080       .  S
N153        N165   1.321       .  A
N153        N169   1.318       .  A
N153       Co162   2.099       .  S
C154        N158   1.349       .  A
C154        C168   1.476       .  S
C155        C174   1.466       .  S
C155        H159   1.082       .  S
N156        C167   1.332       .  A
N156       Co166   2.095       .  S
C160        N176   1.364       .  A
C160        C172   1.459       .  S
Co162      N2081   2.068       .  S
Co162      N2096   2.090       .  S
Co162      Cl173   2.427       .  S
N163        C174   1.355       .  A
Co166      N2089   2.096       .  S
Co166      N2108   2.091       .  S
Co166      Cl173   2.451       .  S
C177        C178   1.412       .  A
C177        C182   1.417       .  A
C178        H183   1.085       .  S
C178        C179   1.394       .  A
C179        C441   1.484       .  S
C179        C180   1.393       .  A
C180        H184   1.084       .  S
C180        C181   1.412       .  A
C181        C347   1.484       .  S
C181        C182   1.420       .  A
C182        H185   1.083       .  S
C186        C187   1.410       .  A
C186        C191   1.417       .  A
C187        H192   1.084       .  S
C187        C188   1.398       .  A
C188        C434   1.466       .  S
C188        C189   1.383       .  A
C189        H193   1.087       .  S
C189        C190   1.395       .  A
C190        C357   1.472       .  S
C190        C191   1.411       .  A
C191        H194   1.083       .  S
C195        C196   1.409       .  A
C195        C200   1.418       .  A
C196        H201   1.084       .  S
C196        C197   1.392       .  A
C197        C424   1.475       .  S
C197        C198   1.388       .  A
C198        H202   1.085       .  S
C198        C199   1.406       .  A
C199        C353   1.486       .  S
C199        C200   1.414       .  A
C200        H203   1.083       .  S
C204        C367   1.490       .  S
C204        C205   1.409       .  A
C204        C209   1.431       .  A
C205        H210   1.083       .  S
C205        C206   1.387       .  A
C206        C411   1.488       .  S
C206        C207   1.392       .  A
C207        H211   1.085       .  S
C207        C208   1.409       .  A
C208        C209   1.430       .  A
C209        H212   1.083       .  S
N213        C218   1.344   1_556  A
N213        C706   1.347       .  A
N213        H245   1.029   1_545  S
N214        C222   1.343       .  A
N214       C1199   1.355       .  A
N215        C220   1.363   1_556  A
N215        C708   1.361       .  A
N215        H246   1.036       .  S
N216        C224   1.345       .  A
N216       C1201   1.351       .  A
C217        N702   1.344       .  A
C217        C225   1.385       .  A
C217        C233   1.402       .  A
C218        C234   1.405       .  A
C218        C226   1.383       .  A
C219        N704   1.361       .  A
C219        C227   1.387       .  A
C219        C236   1.428       .  A
C220        C235   1.431       .  A
C220        C228   1.388       .  A
C221       N1192   1.358       .  A
C221        C233   1.415   1_565  A
C221        C229   1.382       .  A
C222        C236   1.425       .  A
C222        C230   1.396       .  A
C223       N1194   1.352       .  A
C223        C231   1.378       .  A
C223        C234   1.404   1_565  A
C224        C232   1.395       .  A
C224        C235   1.417       .  A
C225        H237   1.080       .  S
C225        C715   1.376       .  A
C226        H238   1.074       .  S
C226        C714   1.371   1_554  A
C227        H239   1.079       .  S
C227        C717   1.371       .  A
C228        H240   1.083       .  S
C228        C716   1.372   1_554  A
C229        H241   1.076       .  S
C229       C1208   1.359       .  A
C230        H242   1.082       .  S
C230       C1207   1.361       .  A
C231        H243   1.083       .  S
C231       C1210   1.370       .  A
C232        H244   1.082       .  S
C232       C1209   1.371       .  A
C233        C421   1.496       .  S
C234        C431   1.483       .  S
C235        C444   1.490       .  S
C236        C414   1.485       .  S
C247        C248   1.414       .  A
C247        C252   1.399       .  A
C248        H253   1.083       .  S
C248        C249   1.418       .  A
C249        C317   1.481       .  S
C249        C250   1.405       .  A
C250        H254   1.084       .  S
C250        C251   1.394       .  A
C251        C401   1.462       .  S
C251        C252   1.386       .  A
C252        H255   1.086       .  S
C256        C332   1.471       .  S
C256        C257   1.399       .  A
C256        C261   1.411       .  A
C257        H262   1.087       .  S
C257        C258   1.384       .  A
C258        C391   1.463       .  S
C258        C259   1.392       .  A
C259        H263   1.084       .  S
C259        C260   1.400       .  A
C260        C261   1.413       .  A
C261        H264   1.082       .  S
C265        C266   1.410       .  A
C265        C270   1.421       .  A
C266        H271   1.084       .  S
C266        C267   1.391       .  A
C267        C384   1.479       .  S
C267        C268   1.392       .  A
C268        H272   1.085       .  S
C268        C269   1.411       .  A
C269        C337   1.493       .  S
C269        C270   1.422       .  A
C270        H273   1.078       .  S
C274        C325   1.502       .  S
C274        C275   1.430       .  A
C274        C279   1.412       .  A
C275        H280   1.082       .  S
C275        C276   1.430       .  A
C276        C277   1.412       .  A
C277        H281   1.082       .  S
C277        C278   1.391       .  A
C278        C371   1.484       .  S
C278        C279   1.393       .  A
C279        H282   1.084       .  S
N283        C288   1.361       .  A
N283       C1265   1.356       .  A
N283        H315   1.040       .  S
N284        C291   1.343       .  A
N284       C2248   1.356       .  A
N285        C290   1.356       .  A
N285       C1267   1.342       .  A
N285        H316   1.042       .  S
N286        C293   1.345       .  A
N286       C2250   1.350       .  A
C287       N1261   1.353   1_545  A
C287        C295   1.383       .  A
C287        C303   1.408       .  A
C288        C304   1.423       .  A
C288        C296   1.387       .  A
C289       N1263   1.343   1_545  A
C289        C297   1.389       .  A
C289        C306   1.406       .  A
C290        C305   1.415       .  A
C290        C298   1.386       .  A
C291        C303   1.415       .  A
C291        C299   1.394       .  A
C292       N2240   1.358       .  A
C292        C306   1.406   1_655  A
C292        C300   1.379       .  A
C293        C301   1.390       .  A
C293        C304   1.415       .  A
C294       N2242   1.349       .  A
C294        C302   1.385       .  A
C294        C305   1.405   1_655  A
C295        H307   1.083       .  S
C295       C1274   1.375   1_545  A
C296        H308   1.083       .  S
C296       C1273   1.375       .  A
C297        H309   1.083       .  S
C297       C1276   1.375   1_545  A
C298        H310   1.082       .  S
C298       C1275   1.375       .  A
C299        H311   1.078       .  S
C299       C2256   1.363       .  A
C300        H312   1.083   1_655  S
C300       C2255   1.364       .  A
C301        H313   1.082       .  S
C301       C2258   1.374       .  A
C302        H314   1.082   1_655  S
C302       C2257   1.375       .  A
C303        C394   1.476       .  S
C304        C374   1.490       .  S
C305        C404   1.479       .  S
C306        C381   1.496       .  S
C317        N335   1.355       .  A
C317        C354   1.461       .  S
N318        N335   1.324       .  A
N318        N340   1.318       .  A
N318      Co1333   2.102       .  S
C319        N344   1.349       .  A
C319        C357   1.470       .  S
C319        H364   1.082       .  S
H320        C361   1.081       .  S
C321        N345   1.331       .  A
C321        C325   1.462       .  S
C321        H350   1.082       .  S
Co322       N362   2.115       .  S
Co322       N338   2.079       .  S
Co322      N1318   2.086   1_545  S
Co322      N1308   2.092   1_545  S
Co322      Cl366   2.441       .  S
N323        C361   1.352       .  A
N323        N330   1.321       .  A
N323      Co1302   2.090       .  S
Co324       N344   2.101       .  S
Co324       N331   2.090       .  S
Co324      N1301   2.082   1_545  S
Co324      N1305   2.119   1_545  S
Co324      Cl366   2.477       .  S
C325        N363   1.363       .  A
N326        N333   1.319       .  A
N326        N356   1.332       .  A
N326       Co359   2.085       .  S
N327        N345   1.319       .  A
N327        N363   1.339       .  A
N327      Co1302   2.114       .  S
N328        C357   1.352       .  A
N328        N338   1.316       .  A
H329        C354   1.082       .  S
N330        N351   1.318       .  A
N330      Co1300   2.093       .  S
N331        N349   1.318       .  A
N331        N336   1.326       .  A
C332        N336   1.355       .  A
C332        C360   1.475       .  S
N333        C348   1.334       .  A
N333      Co1333   2.103       .  S
C334        N362   1.357       .  A
C334        C337   1.482       .  S
C334        H368   1.082       .  S
C337        N358   1.347       .  A
N338        N344   1.319       .  A
N339        C365   1.326       .  A
N339        N341   1.310       .  A
N339       Co355   2.055       .  S
N340        C354   1.344       .  A
N340      Co1300   2.076       .  S
N341        N369   1.333       .  A
N341      Co1337   2.104       .  S
H342        C365   1.081       .  S
H343        C360   1.081       .  S
N345       Co359   2.093       .  S
N346        N358   1.318       .  A
N346        N362   1.314       .  A
N346       Co355   2.068       .  S
C347        N351   1.347       .  A
C347        C361   1.467       .  S
C348        C367   1.469       .  S
C348        H352   1.082       .  S
N349        C360   1.333       .  A
N349      Co1337   2.086       .  S
C353        N369   1.364       .  A
C353        C365   1.459       .  S
Co355      N1296   2.097   1_545  S
Co355      N1311   2.103   1_545  S
Co355      Cl366   2.414       .  S
N356        C367   1.352       .  A
Co359      N1319   2.103       .  S
Co359      N1327   2.075       .  S
Co359     Cl1344   2.448       .  S
Cl366     Co1337   2.459       .  S
C370        C371   1.406       .  A
C370        C375   1.378       .  A
C370        F377   1.357       .  S
C371        C372   1.411       .  A
C372        C373   1.414       .  A
C372        F379   1.357       .  S
C373        C374   1.409       .  A
C373        F378   1.356       .  S
C374        C375   1.399       .  A
C375        F376   1.354       .  S
C380        C381   1.411       .  A
C380        C385   1.399       .  A
C380        F387   1.353       .  S
C381        C382   1.405       .  A
C382        C383   1.404       .  A
C382        F389   1.353       .  S
C383        C384   1.407       .  A
C383        F388   1.358       .  S
C384        C385   1.399       .  A
C385        F386   1.358       .  S
C390        C391   1.394       .  A
C390        C395   1.389       .  A
C390        F397   1.358       .  S
C391        C392   1.411       .  A
C392        C393   1.395       .  A
C392        F399   1.358       .  S
C393        C394   1.400       .  A
C393        F398   1.357       .  S
C394        C395   1.411       .  A
C395        F396   1.354   1_545  S
C400        C401   1.407       .  A
C400        C405   1.395       .  A
C400        F407   1.358       .  S
C401        C402   1.398       .  A
C402        C403   1.393       .  A
C402        F409   1.358       .  S
C403        C404   1.408       .  A
C403        F408   1.355   1_455  S
C404        C405   1.393       .  A
C405        F406   1.353       .  S
C410        C411   1.403       .  A
C410        C415   1.411       .  A
C410        F417   1.354       .  S
C411        C412   1.414       .  A
C412        C413   1.378       .  A
C412        F419   1.352       .  S
C413        C414   1.397       .  A
C413        F418   1.360       .  S
C414        C415   1.408       .  A
C415        F416   1.355       .  S
C420        C421   1.414       .  A
C420        C425   1.392       .  A
C420        F427   1.352       .  S
C421        C422   1.405       .  A
C422        C423   1.400       .  A
C422        F429   1.354       .  S
C423        C424   1.410       .  A
C423        F428   1.357       .  S
C424        C425   1.395       .  A
C425        F426   1.358       .  S
C430        C431   1.409       .  A
C430        C435   1.391       .  A
C430        F437   1.357   1_545  S
C431        C432   1.400       .  A
C432        C433   1.401       .  A
C432        F439   1.355       .  S
C433        C434   1.407       .  A
C433        F438   1.357       .  S
C434        C435   1.398       .  A
C435        F436   1.358       .  S
C440        C441   1.408       .  A
C440        C445   1.414       .  A
C440        F447   1.356       .  S
C441        C442   1.407       .  A
C442        C443   1.380       .  A
C442        F449   1.357       .  S
C443        C444   1.400       .  A
C443        F448   1.359       .  S
C444        C445   1.409       .  A
C445        F446   1.356       .  S
C450        C451   1.409       .  A
C450        C455   1.406       .  A
C450        F457   1.357       .  S
C451        C452   1.402       .  A
C452        C453   1.391       .  A
C452        F459   1.358       .  S
C453        C454   1.408       .  A
C453        F458   1.356       .  S
C454        C455   1.405       .  A
C455        F456   1.355       .  S
C460        C461   1.395       .  A
C460        C465   1.391       .  A
C460        F467   1.358       .  S
C461        C462   1.410       .  A
C462        C463   1.396       .  A
C462        F469   1.358       .  S
C463        C464   1.399       .  A
C463        F468   1.358       .  S
C464        C465   1.408       .  A
C465        F466   1.358       .  S
C470        C471   1.403       .  A
C470        C475   1.378       .  A
C470        F477   1.360       .  S
C471        C472   1.411       .  A
C472        C473   1.408       .  A
C472        F479   1.357       .  S
C473        C474   1.405       .  A
C473        F478   1.357       .  S
C474        C475   1.405       .  A
C475        F476   1.358       .  S
C480        C481   1.411       .  A
C480        C485   1.411       .  A
C480        F487   1.356       .  S
C481        C482   1.401       .  A
C482        C483   1.381       .  A
C482        F489   1.360       .  S
C483        C484   1.409       .  A
C483        F488   1.357       .  S
C484        C485   1.405       .  A
C485        F486   1.356       .  S
C490        N508   1.353       .  A
C490        C527   1.469       .  S
C490        C675   1.492       .  S
N491        N508   1.327       .  A
N491        N513   1.320       .  A
C492        N517   1.354       .  A
C492        C530   1.481       .  S
C492        H537   1.080       .  S
H493        C534   1.081       .  S
C494        N518   1.320       .  A
C494        C498   1.452       .  S
C494        H523   1.078       .  S
Co495       N535   2.091       .  S
Co495       N511   2.079       .  S
N496        C534   1.349       .  A
N496        N503   1.321       .  A
N496       Co497   2.083       .  S
Co497       N500   2.121       .  S
Co497      Cl539   2.481       .  S
C498        N536   1.360       .  A
C498        C666   1.489       .  S
N499        N506   1.319       .  A
N499        N529   1.337       .  A
N499       Co532   2.122       .  S
N500        N518   1.320       .  A
N500        N536   1.338       .  A
N501        C530   1.351       .  A
N501        N511   1.317       .  A
H502        C527   1.081       .  S
N503        N524   1.322       .  A
N504        N522   1.319       .  A
N504        N509   1.336       .  A
C505        N509   1.360       .  A
C505        C533   1.467       .  S
C505        C697   1.498       .  S
N506        C521   1.337       .  A
C507        N535   1.345       .  A
C507        C510   1.466       .  S
C507        H541   1.082       .  S
C510        N531   1.350       .  A
C510        C684   1.475       .  S
N511        N517   1.317       .  A
N512        C538   1.334       .  A
N512        N514   1.315       .  A
N512       Co528   2.078       .  S
N513        C527   1.348       .  A
N514        N542   1.330       .  A
H515        C538   1.082       .  S
H516        C533   1.073       .  S
N518       Co532   2.053       .  S
N519        N531   1.322       .  A
N519        N535   1.315       .  A
N519       Co528   2.072       .  S
C520        N524   1.355       .  A
C520        C534   1.462       .  S
C520        C552   1.490       .  S
C521        C540   1.465       .  S
C521        H525   1.081       .  S
N522        C533   1.321       .  A
C526        N542   1.362       .  A
C526        C538   1.467       .  S
C526        C563   1.481       .  S
N529        C540   1.362       .  A
C530        C574   1.485       .  S
Co532      Cl539   2.461       .  S
C540        C543   1.504       .  S
C543        C544   1.429       .  A
C543        C548   1.414       .  A
C544        H549   1.080       .  S
C544        C545   1.431       .  A
C545        C643   1.502       .  S
C545        C546   1.407       .  A
C546        H550   1.086       .  S
C546        C547   1.393       .  A
C547        C973   1.484       .  S
C547        C548   1.396       .  A
C548        H551   1.082       .  S
C552        C553   1.406       .  A
C552        C557   1.429       .  A
C553        H558   1.084       .  S
C553        C554   1.389       .  A
C554        C963   1.474       .  S
C554        C555   1.392       .  A
C555        H559   1.085       .  S
C555        C556   1.408       .  A
C556        C653   1.500       .  S
C556        C557   1.424       .  A
C557        H560   1.083       .  S
C561        C663   1.481       .  S
C561        C562   1.415       .  A
C561        C566   1.403       .  A
C562        H567   1.078       .  S
C562        C563   1.416       .  A
C563        C564   1.400       .  A
C564        H568   1.086       .  S
C564        C565   1.388       .  A
C565        C950   1.462       .  S
C565        C566   1.394       .  A
C566        H569   1.085       .  S
C570        C649   1.497       .  S
C570        C571   1.415       .  A
C570        C575   1.423       .  A
C571        H576   1.083       .  S
C571        C572   1.400       .  A
C572        C940   1.481       .  S
C572        C573   1.387       .  A
C573        H577   1.086       .  S
C573        C574   1.400       .  A
C574        C575   1.419       .  A
C575        H578   1.083       .  S
N579        C584   1.342   1_554  A
N579       C2539   1.343   1_554  A
N579        H611   1.040       .  S
N580        C588   1.348       .  A
N581        C586   1.358       .  A
N581       C2541   1.359       .  A
N581        H612   1.038       .  S
N582        C590   1.347       .  A
C583       N2535   1.349       .  A
C583        C591   1.385       .  A
C583        C599   1.408       .  A
C584        C600   1.388       .  A
C584        C592   1.373       .  A
C585       N2537   1.359       .  A
C585        C593   1.388       .  A
C585        C602   1.428       .  A
C586        C601   1.422       .  A
C586        C594   1.387       .  A
C587        C599   1.403   1_554  A
C587        C595   1.379       .  A
C588        C602   1.429       .  A
C588        C596   1.397       .  A
C589        C597   1.374       .  A
C589        C600   1.400   1_554  A
C590        C598   1.389       .  A
C590        C601   1.411       .  A
C591        H603   1.082       .  S
C591       C2548   1.357   1_455  A
C592        H604   1.070       .  S
C592       C2547   1.370       .  A
C593        H605   1.083       .  S
C593       C2550   1.374   1_455  A
C594        H606   1.083       .  S
C594       C2549   1.371       .  A
C595        H607   1.083       .  S
C596        H608   1.080       .  S
C597        H609   1.083       .  S
C598        H610   1.082       .  S
C599        C953   1.477       .  S
C600        C943   1.487       .  S
C601        C960   1.487       .  S
C602        C970   1.486       .  S
C613        N631   1.343       .  A
C613        C650   1.483       .  S
C613        C754   1.492       .  S
N614        N631   1.316       .  A
N614        N636   1.317       .  A
N614      Co2607   2.058       .  S
C615        N640   1.362       .  A
C615        C653   1.479       .  S
C615        H660   1.081       .  S
H616        C657   1.081       .  S
C617        N641   1.327       .  A
C617        C621   1.459       .  S
C617        H646   1.082       .  S
Co618      N2592   2.136       .  S
Co618      N2582   2.068       .  S
Co618       N658   2.070       .  S
Co618       N634   2.083       .  S
Co618      Cl662   2.465       .  S
N619        C657   1.362       .  A
N619        N626   1.322       .  A
N619      Co2576   2.135       .  S
Co620      N2575   2.132       .  S
Co620      N2579   2.093       .  S
Co620       N640   2.125       .  S
Co620       N627   2.114       .  S
Co620      Cl662   2.481       .  S
C621        N659   1.359       .  A
C621        C736   1.476       .  S
N622        N629   1.315       .  A
N622        N652   1.330       .  A
N622      Co2611   2.096       .  S
N623        N641   1.319       .  A
N623        N659   1.332       .  A
N623      Co2576   2.106       .  S
N624        C653   1.348       .  A
N624        N634   1.316       .  A
H625        C650   1.079       .  S
N626        N647   1.313       .  A
N626      Co2574   2.080       .  S
N627        N645   1.323       .  A
N627        N632   1.337       .  A
C628        N632   1.359       .  A
C628        C656   1.463       .  S
C628        C765   1.501       .  S
N629        C644   1.338       .  A
N629      Co2607   2.080       .  S
C630        N658   1.345       .  A
C630        C633   1.457       .  S
C630        H664   1.082       .  S
C633        N654   1.358       .  A
C633        C749   1.482       .  S
N634        N640   1.319       .  A
N635        C661   1.338       .  A
N635        N637   1.319       .  A
N635       Co651   2.089       .  S
N636        C650   1.357       .  A
N636      Co2574   2.126       .  S
N637        N665   1.334       .  A
N637       Co655   2.117       .  S
H638        C661   1.082       .  S
H639        C656   1.082       .  S
N641      Co2611   2.070       .  S
N642        N654   1.325       .  A
N642        N658   1.319       .  A
N642       Co651   2.119       .  S
C643        N647   1.349       .  A
C643        C657   1.481       .  S
C644        C663   1.463       .  S
C644        H648   1.082       .  S
N645        C656   1.334       .  A
N645       Co655   2.102       .  S
C649        N665   1.360       .  A
C649        C661   1.464       .  S
Co651      N2570   2.077       .  S
Co651      N2585   2.103       .  S
Co651      Cl662   2.436       .  S
N652        C663   1.357       .  A
Co655      N2578   2.102       .  S
Co655      N2597   2.088       .  S
Co655      Cl662   2.447       .  S
C666        C667   1.410       .  A
C666        C671   1.418       .  A
C667        H672   1.085       .  S
C667        C668   1.393       .  A
C668        C930   1.483       .  S
C668        C669   1.389       .  A
C669        H673   1.084       .  S
C669        C670   1.410       .  A
C670        C836   1.482       .  S
C670        C671   1.421       .  A
C671        H674   1.083       .  S
C675        C676   1.415       .  A
C675        C680   1.419       .  A
C676        H681   1.084       .  S
C676        C677   1.405       .  A
C677        C923   1.474       .  S
C677        C678   1.385       .  A
C678        H682   1.086       .  S
C678        C679   1.396       .  A
C679        C846   1.476       .  S
C679        C680   1.412       .  A
C680        H683   1.083       .  S
C684        C685   1.409       .  A
C684        C689   1.411       .  A
C685        H690   1.084       .  S
C685        C686   1.396       .  A
C686        C913   1.471       .  S
C686        C687   1.389       .  A
C687        H691   1.086       .  S
C687        C688   1.404       .  A
C688        C842   1.475       .  S
C688        C689   1.408       .  A
C689        H692   1.083       .  S
C693        C856   1.493       .  S
C693        C694   1.412       .  A
C693        C698   1.432       .  A
C694        H699   1.083       .  S
C694        C695   1.388       .  A
C695        C900   1.491       .  S
C695        C696   1.390       .  A
C696        H700   1.085       .  S
C696        C697   1.408       .  A
C697        C698   1.430       .  A
C698        H701   1.083       .  S
N702        C707   1.344       .  A
N702        H734   1.038   1_545  S
N703       C1688   1.356       .  A
N703        C711   1.344       .  A
N704        C709   1.364       .  A
N704        H735   1.035       .  S
N705       C1690   1.351       .  A
N705        C713   1.346       .  A
C706        C714   1.381       .  A
C706        C722   1.402       .  A
C707        C723   1.394       .  A
C707        C715   1.382       .  A
C708        C716   1.387       .  A
C708        C725   1.427       .  A
C709        C724   1.431       .  A
C709        C717   1.387       .  A
C710       N1681   1.351       .  A
C710        C722   1.401   1_565  A
C710        C718   1.378       .  A
C711        C725   1.425       .  A
C711        C719   1.394       .  A
C712       N1683   1.352       .  A
C712        C720   1.377       .  A
C712        C723   1.399   1_565  A
C713        C721   1.394       .  A
C713        C724   1.417       .  A
C714        H726   1.080       .  S
C715        H727   1.079       .  S
C716        H728   1.082       .  S
C717        H729   1.083       .  S
C718        H730   1.082       .  S
C718       C1697   1.365       .  A
C719        H731   1.082       .  S
C719       C1696   1.361       .  A
C720        H732   1.083       .  S
C720       C1699   1.367       .  A
C721        H733   1.081       .  S
C721       C1698   1.367       .  A
C722        C910   1.485       .  S
C723        C920   1.484       .  S
C724        C933   1.490       .  S
C725        C903   1.488       .  S
C736        C737   1.410       .  A
C736        C741   1.400       .  A
C737        H742   1.083       .  S
C737        C738   1.415       .  A
C738        C806   1.482       .  S
C738        C739   1.407       .  A
C739        H743   1.084       .  S
C739        C740   1.398       .  A
C740        C890   1.470       .  S
C740        C741   1.389       .  A
C741        H744   1.086       .  S
C745        C821   1.485       .  S
C745        C746   1.400       .  A
C745        C750   1.422       .  A
C746        H751   1.087       .  S
C746        C747   1.385       .  A
C747        C880   1.464       .  S
C747        C748   1.391       .  A
C748        H752   1.084       .  S
C748        C749   1.398       .  A
C749        C750   1.421       .  A
C750        H753   1.081       .  S
C754        C755   1.415       .  A
C754        C759   1.416       .  A
C755        H760   1.084       .  S
C755        C756   1.395       .  A
C756        C873   1.487       .  S
C756        C757   1.394       .  A
C757        H761   1.085       .  S
C757        C758   1.411       .  A
C758        C826   1.486       .  S
C758        C759   1.419       .  A
C759        H762   1.082       .  S
C763        C814   1.501       .  S
C763        C764   1.428       .  A
C763        C768   1.411       .  A
C764        H769   1.083       .  S
C764        C765   1.428       .  A
C765        C766   1.410       .  A
C766        H770   1.083       .  S
C766        C767   1.392       .  A
C767        C860   1.483       .  S
C767        C768   1.395       .  A
C768        H771   1.085       .  S
N772        C777   1.361       .  A
N772       C1754   1.354       .  A
N772        H804   1.041       .  S
N773        C780   1.343       .  A
N773       C2737   1.356       .  A
N774        C779   1.356       .  A
N774       C1756   1.343       .  A
N774        H805   1.042       .  S
N775        C782   1.345       .  A
N775       C2739   1.350       .  A
C776       N1750   1.356   1_545  A
C776        C784   1.384       .  A
C776        C792   1.415       .  A
C777        C793   1.422       .  A
C777        C785   1.387       .  A
C778       N1752   1.344   1_545  A
C778        C786   1.390       .  A
C778        C795   1.411       .  A
C779        C794   1.418       .  A
C779        C787   1.387       .  A
C780        C792   1.417       .  A
C780        C788   1.397       .  A
C781       N2729   1.358       .  A
C781        C795   1.406   1_655  A
C781        C789   1.378       .  A
C782        C790   1.390       .  A
C782        C793   1.415       .  A
C783       N2731   1.350       .  A
C783        C791   1.386       .  A
C783        C794   1.407   1_655  A
C784        H796   1.083       .  S
C784       C1763   1.375   1_545  A
C785        H797   1.083       .  S
C785       C1762   1.374       .  A
C786        H798   1.083       .  S
C786       C1765   1.377   1_545  A
C787        H799   1.082       .  S
C787       C1764   1.377       .  A
C788        H800   1.079       .  S
C788       C2745   1.367       .  A
C789        H801   1.082   1_655  S
C789       C2744   1.364       .  A
C790        H802   1.082       .  S
C790       C2747   1.374       .  A
C791        H803   1.082   1_655  S
C791       C2746   1.375       .  A
C792        C883   1.480       .  S
C793        C863   1.489       .  S
C794        C893   1.483       .  S
C795        C870   1.500       .  S
C806        N824   1.354       .  A
C806        C843   1.463       .  S
N807        N824   1.324       .  A
N807        N829   1.318       .  A
N807      Co1822   2.093       .  S
C808        N833   1.351       .  A
C808        C846   1.473       .  S
C808        H853   1.081       .  S
H809        C850   1.081       .  S
C810        N834   1.334       .  A
C810        C814   1.463       .  S
C810        H839   1.082       .  S
Co811      N1807   2.080   1_545  S
Co811      N1797   2.088   1_545  S
Co811       N851   2.110       .  S
Co811       N827   2.074       .  S
Co811      Cl855   2.431       .  S
N812        C850   1.351       .  A
N812        N819   1.321       .  A
N812      Co1791   2.088       .  S
Co813      N1790   2.097   1_545  S
Co813      N1794   2.123   1_545  S
Co813       N833   2.111       .  S
Co813       N820   2.115       .  S
Co813      Cl855   2.491       .  S
C814        N852   1.362       .  A
N815        N822   1.319       .  A
N815        N845   1.335       .  A
N815       Co848   2.097       .  S
N816        N834   1.320       .  A
N816        N852   1.338       .  A
N816      Co1791   2.116       .  S
N817        C846   1.349       .  A
N817        N827   1.316       .  A
H818        C843   1.082       .  S
N819        N840   1.317       .  A
N819      Co1789   2.091       .  S
N820        N838   1.316       .  A
N820        N825   1.331       .  A
C821        N825   1.363       .  A
C821        C849   1.473       .  S
N822        C837   1.332       .  A
N822      Co1822   2.098       .  S
C823        N851   1.353       .  A
C823        C826   1.476       .  S
C823        H857   1.082       .  S
C826        N847   1.349       .  A
N827        N833   1.320       .  A
N828        C854   1.330       .  A
N828        N830   1.312       .  A
N828       Co844   2.065       .  S
N829        C843   1.343       .  A
N829      Co1789   2.083       .  S
N830        N858   1.328       .  A
N830      Co1826   2.087       .  S
H831        C854   1.082       .  S
H832        C849   1.081       .  S
N834       Co848   2.098       .  S
N835        N847   1.319       .  A
N835        N851   1.316       .  A
N835       Co844   2.071       .  S
C836        N840   1.348       .  A
C836        C850   1.465       .  S
C837        C856   1.466       .  S
C837        H841   1.082       .  S
N838        C849   1.334       .  A
N838      Co1826   2.086       .  S
C842        N858   1.357       .  A
C842        C854   1.465       .  S
Co844      N1785   2.112   1_545  S
Co844      N1800   2.099   1_545  S
Co844      Cl855   2.440       .  S
N845        C856   1.357       .  A
Co848      N1808   2.108       .  S
Co848      N1816   2.089       .  S
Co848     Cl1833   2.457       .  S
Cl855     Co1826   2.439       .  S
C859        C860   1.407       .  A
C859        C864   1.376       .  A
C859        F866   1.357       .  S
C860        C861   1.410       .  A
C861        C862   1.414       .  A
C861        F868   1.357       .  S
C862        C863   1.409       .  A
C862        F867   1.356       .  S
C863        C864   1.398       .  A
C864        F865   1.354       .  S
C869        C870   1.412       .  A
C869        C874   1.403       .  A
C869        F876   1.353       .  S
C870        C871   1.406       .  A
C871        C872   1.406       .  A
C871        F878   1.356       .  S
C872        C873   1.408       .  A
C872        F877   1.358       .  S
C873        C874   1.401       .  A
C874        F875   1.358       .  S
C879        C880   1.393       .  A
C879        C884   1.388       .  A
C879        F886   1.358       .  S
C880        C881   1.412       .  A
C881        C882   1.396       .  A
C881        F888   1.359       .  S
C882        C883   1.401       .  A
C882        F887   1.358       .  S
C883        C884   1.411       .  A
C884        F885   1.353       .  S
C889        C890   1.408       .  A
C889        C894   1.398       .  A
C889        F896   1.357       .  S
C890        C891   1.401       .  A
C891        C892   1.394       .  A
C891        F898   1.357       .  S
C892        C893   1.408       .  A
C892        F897   1.357   1_455  S
C893        C894   1.394       .  A
C894        F895   1.353       .  S
C899        C900   1.404       .  A
C899        C904   1.411       .  A
C899        F906   1.353       .  S
C900        C901   1.415       .  A
C901        C902   1.380       .  A
C901        F908   1.353       .  S
C902        C903   1.398       .  A
C902        F907   1.360       .  S
C903        C904   1.408       .  A
C904        F905   1.355       .  S
C909        C910   1.411       .  A
C909        C914   1.399       .  A
C909        F916   1.357       .  S
C910        C911   1.397       .  A
C911        C912   1.397       .  A
C911        F918   1.351       .  S
C912        C913   1.407       .  A
C912        F917   1.358       .  S
C913        C914   1.400       .  A
C914        F915   1.358       .  S
C919        C920   1.410       .  A
C919        C924   1.395       .  A
C919        F926   1.358   1_545  S
C920        C921   1.397       .  A
C921        C922   1.403       .  A
C921        F928   1.355       .  S
C922        C923   1.405       .  A
C922        F927   1.352       .  S
C923        C924   1.401       .  A
C924        F925   1.358       .  S
C929        C930   1.404       .  A
C929        C934   1.411       .  A
C929        F936   1.356       .  S
C930        C931   1.408       .  A
C931        C932   1.382       .  A
C931        F938   1.357       .  S
C932        C933   1.400       .  A
C932        F937   1.359       .  S
C933        C934   1.410       .  A
C934        F935   1.357       .  S
C939        C940   1.409       .  A
C939        C944   1.404       .  A
C939        F946   1.358       .  S
C940        C941   1.403       .  A
C941        C942   1.394       .  A
C941        F948   1.358       .  S
C942        C943   1.409       .  A
C942        F947   1.358   1_556  S
C943        C944   1.404       .  A
C944        F945   1.356       .  S
C949        C950   1.397       .  A
C949        C954   1.394       .  A
C949        F956   1.358       .  S
C950        C951   1.408       .  A
C951        C952   1.393       .  A
C951        F958   1.358       .  S
C952        C953   1.398       .  A
C952        F957   1.355       .  S
C953        C954   1.410       .  A
C954        F955   1.359   1_556  S
C959        C960   1.403       .  A
C959        C964   1.382       .  A
C959        F966   1.359       .  S
C960        C961   1.408       .  A
C961        C962   1.409       .  A
C961        F968   1.356       .  S
C962        C963   1.404       .  A
C962        F967   1.357       .  S
C963        C964   1.405       .  A
C964        F965   1.359       .  S
C969        C970   1.412       .  A
C969        C974   1.412       .  A
C969        F976   1.356       .  S
C970        C971   1.398       .  A
C971        C972   1.379       .  A
C971        F978   1.360       .  S
C972        C973   1.409       .  A
C972        F977   1.356       .  S
C973        C974   1.407       .  A
C974        F975   1.357       .  S
C979        N997   1.352       .  A
C979       C1016   1.469       .  S
C979       C1164   1.491       .  S
N980        N997   1.327       .  A
N980       N1002   1.320       .  A
N980      Co1506   2.095   1_554  S
C981       N1006   1.350       .  A
C981       C1019   1.475       .  S
C981       H1026   1.081       .  S
H982       C1023   1.081       .  S
C983       N1007   1.319       .  A
C983        C987   1.453       .  S
C983       H1012   1.079       .  S
Co984      N1491   2.110       .  S
Co984      N1481   2.108       .  S
Co984      N1024   2.095       .  S
Co984      N1000   2.088       .  S
Co984     Cl1517   2.430       .  S
N985       C1023   1.355       .  A
N985        N992   1.322       .  A
N985       Co986   2.111   1_554  S
Co986       N989   2.112   1_556  S
Co986      N1495   2.091       .  S
Co986      N1482   2.128       .  S
Co986     Cl1028   2.476       .  S
C987       N1025   1.359       .  A
C987       C1155   1.484       .  S
N988        N995   1.320       .  A
N988       N1018   1.337       .  A
N988      Co1021   2.119   1_554  S
N989       N1007   1.319       .  A
N989       N1025   1.335       .  A
N990       C1019   1.354       .  A
N990       N1000   1.317       .  A
H991       C1016   1.082       .  S
N992       N1013   1.324       .  A
N992      Co1473   2.112   1_554  S
N993       N1011   1.318       .  A
N993        N998   1.338       .  A
N993      Co1475   2.111       .  S
C994        N998   1.361       .  A
C994       C1022   1.466       .  S
C994       C1186   1.499       .  S
N995       C1010   1.336       .  A
N995      Co1506   2.094   1_554  S
C996       N1024   1.348       .  A
C996        C999   1.470       .  S
C996       H1030   1.082       .  S
C999       N1020   1.351       .  A
C999       C1173   1.482       .  S
N1000      N1006   1.317       .  A
N1001      C1027   1.330       .  A
N1001      N1003   1.313       .  A
N1001     Co1017   2.064       .  S
N1002      C1016   1.347       .  A
N1002     Co1473   2.103   1_554  S
N1003      N1031   1.330       .  A
N1003     Co1510   2.107       .  S
H1004      C1027   1.082       .  S
H1005      C1022   1.070       .  S
N1006     Co1475   2.101       .  S
N1007     Co1021   2.049   1_554  S
N1008      N1020   1.321       .  A
N1008      N1024   1.314       .  A
N1008     Co1017   2.070       .  S
C1009      N1013   1.355       .  A
C1009      C1023   1.472       .  S
C1009      C1041   1.503       .  S
C1010      C1029   1.464       .  S
C1010      H1014   1.081       .  S
N1011      C1022   1.320       .  A
N1011     Co1510   2.079       .  S
C1015      N1031   1.362       .  A
C1015      C1027   1.462       .  S
C1015      C1052   1.478       .  S
Co1017     N1469   2.086       .  S
Co1017     N1484   2.088       .  S
Co1017    Cl1517   2.435       .  S
N1018      C1029   1.361       .  A
C1019      C1063   1.480       .  S
Co1021     N1492   2.108       .  S
Co1021     N1500   2.074       .  S
Co1021    Cl1028   2.465       .  S
Cl1028    Co1473   2.441       .  S
Cl1028    Co1506   2.434       .  S
C1029      C1032   1.501       .  S
C1032      C1033   1.427       .  A
C1032      C1037   1.414       .  A
C1033      H1038   1.081       .  S
C1033      C1034   1.428       .  A
C1034      C1132   1.502       .  S
C1034      C1035   1.408       .  A
C1035      H1039   1.086       .  S
C1035      C1036   1.395       .  A
C1036      C1462   1.484       .  S
C1036      C1037   1.396       .  A
C1037      H1040   1.082       .  S
C1041      C1042   1.411       .  A
C1041      C1046   1.432       .  A
C1042      H1047   1.084       .  S
C1042      C1043   1.396       .  A
C1043      C1452   1.475       .  S
C1043      C1044   1.391       .  A
C1044      H1048   1.086       .  S
C1044      C1045   1.406       .  A
C1045      C1142   1.503       .  S
C1045      C1046   1.428       .  A
C1046      H1049   1.082       .  S
C1050      C1152   1.477       .  S
C1050      C1051   1.411       .  A
C1050      C1055   1.404       .  A
C1051      H1056   1.080       .  S
C1051      C1052   1.412       .  A
C1052      C1053   1.404       .  A
C1053      H1057   1.086       .  S
C1053      C1054   1.391       .  A
C1054      C1439   1.468       .  S
C1054      C1055   1.394       .  A
C1055      H1058   1.084       .  S
C1059      C1138   1.496       .  S
C1059      C1060   1.417       .  A
C1059      C1064   1.422       .  A
C1060      H1065   1.083       .  S
C1060      C1061   1.402       .  A
C1061      C1429   1.477       .  S
C1061      C1062   1.382       .  A
C1062      H1066   1.087       .  S
C1062      C1063   1.395       .  A
C1063      C1064   1.417       .  A
C1064      H1067   1.083       .  S
N1068      C1073   1.353       .  A
N1068      C3028   1.353       .  A
N1068      H1100   1.035       .  S
N1069      C1565   1.353       .  A
N1069      C1077   1.346       .  A
N1070      C1075   1.360       .  A
N1070      C3030   1.363       .  A
N1070      H1101   1.035       .  S
N1071      C1567   1.354       .  A
N1071      C1079   1.347       .  A
C1072      N3024   1.344       .  A
C1072      C1080   1.381       .  A
C1072      C1088   1.393       .  A
C1073      C1089   1.418       .  A
C1073      C1081   1.388       .  A
C1074      N3026   1.361       .  A
C1074      C1082   1.389       .  A
C1074      C1091   1.429       .  A
C1075      C1090   1.427       .  A
C1075      C1083   1.387       .  A
C1076      N1558   1.355       .  A
C1076      C1088   1.402       .  A
C1076      C1084   1.376       .  A
C1077      C1091   1.424       .  A
C1077      C1085   1.398       .  A
C1078      N1560   1.349       .  A
C1078      C1086   1.381       .  A
C1078      C1089   1.406       .  A
C1079      C1087   1.395       .  A
C1079      C1090   1.419       .  A
C1080      H1092   1.080       .  S
C1080      C3037   1.370   1_455  A
C1081      H1093   1.079       .  S
C1081      C3036   1.355       .  A
C1082      H1094   1.082       .  S
C1082      C3039   1.373   1_455  A
C1083      H1095   1.083       .  S
C1083      C3038   1.371       .  A
C1084      H1096   1.082       .  S
C1084      C1574   1.364       .  A
C1085      H1097   1.078       .  S
C1085      C1573   1.361       .  A
C1086      H1098   1.083       .  S
C1086      C1576   1.375       .  A
C1087      H1099   1.082       .  S
C1087      C1575   1.371       .  A
C1088      C1442   1.479       .  S
C1089      C1432   1.489       .  S
C1090      C1449   1.486       .  S
C1091      C1459   1.485       .  S
C1102      N1120   1.346       .  A
C1102      C1139   1.477       .  S
C1102      C1243   1.488       .  S
N1103      N1120   1.317       .  A
N1103      N1125   1.316       .  A
N1103     Co3096   2.062       .  S
C1104      N1129   1.362       .  A
C1104      C1142   1.479       .  S
C1104      H1149   1.081       .  S
H1105      C1146   1.081       .  S
C1106      N1130   1.332       .  A
C1106      C1110   1.467       .  S
C1106      H1135   1.082       .  S
Co1107     N3081   2.132       .  S
Co1107     N3071   2.080       .  S
Co1107     N1147   2.071       .  S
Co1107     N1123   2.090       .  S
Co1107    Cl1151   2.462       .  S
N1108      C1146   1.363       .  A
N1108      N1115   1.320       .  A
N1108     Co3065   2.137       .  S
Co1109     N3064   2.120       .  S
Co1109     N3068   2.107       .  S
Co1109     N1129   2.127       .  S
Co1109     N1116   2.109       .  S
Co1109    Cl1151   2.484       .  S
C1110      N1148   1.355       .  A
C1110      C1225   1.473       .  S
N1111      N1118   1.316       .  A
N1111      N1141   1.328       .  A
N1111     Co3100   2.089       .  S
N1112      N1130   1.318       .  A
N1112      N1148   1.329       .  A
N1112     Co3065   2.096       .  S
N1113      C1142   1.350       .  A
N1113      N1123   1.318       .  A
H1114      C1139   1.075       .  S
N1115      N1136   1.314       .  A
N1115     Co3063   2.074       .  S
N1116      N1134   1.323       .  A
N1116      N1121   1.337       .  A
C1117      N1121   1.359       .  A
C1117      C1145   1.461       .  S
C1117      C1254   1.497       .  S
N1118      C1133   1.337       .  A
N1118     Co3096   2.080       .  S
C1119      N1147   1.344       .  A
C1119      C1122   1.460       .  S
C1119      H1153   1.082       .  S
C1122      N1143   1.350       .  A
C1122      C1238   1.470       .  S
N1123      N1129   1.321       .  A
N1124      C1150   1.338       .  A
N1124      N1126   1.318       .  A
N1124     Co1140   2.083       .  S
N1125      C1139   1.353       .  A
N1125     Co3063   2.118       .  S
N1126      N1154   1.335       .  A
N1126     Co1144   2.119       .  S
H1127      C1150   1.082       .  S
H1128      C1145   1.082       .  S
N1130     Co3100   2.081       .  S
N1131      N1143   1.319       .  A
N1131      N1147   1.319       .  A
N1131     Co1140   2.090       .  S
C1132      N1136   1.349       .  A
C1132      C1146   1.480       .  S
C1133      C1152   1.463       .  S
C1133      H1137   1.082       .  S
N1134      C1145   1.330       .  A
N1134     Co1144   2.095       .  S
C1138      N1154   1.362       .  A
C1138      C1150   1.462       .  S
Co1140     N3059   2.064       .  S
Co1140     N3074   2.090       .  S
Co1140    Cl1151   2.429       .  S
N1141      C1152   1.354       .  A
Co1144     N3067   2.103       .  S
Co1144     N3086   2.078       .  S
Co1144    Cl1151   2.444       .  S
C1155      C1156   1.410       .  A
C1155      C1160   1.416       .  A
C1156      H1161   1.085       .  S
C1156      C1157   1.391       .  A
C1157      C1419   1.481       .  S
C1157      C1158   1.390       .  A
C1158      H1162   1.084       .  S
C1158      C1159   1.410       .  A
C1159      C1325   1.478       .  S
C1159      C1160   1.418       .  A
C1160      H1163   1.083       .  S
C1164      C1165   1.418       .  A
C1164      C1169   1.417       .  A
C1165      H1170   1.083       .  S
C1165      C1166   1.408       .  A
C1166      C1412   1.478       .  S
C1166      C1167   1.384       .  A
C1167      H1171   1.087       .  S
C1167      C1168   1.396       .  A
C1168      C1335   1.474       .  S
C1168      C1169   1.409       .  A
C1169      H1172   1.083       .  S
C1173      C1174   1.410       .  A
C1173      C1178   1.419       .  A
C1174      H1179   1.084       .  S
C1174      C1175   1.393       .  A
C1175      C1402   1.473       .  S
C1175      C1176   1.387       .  A
C1176      H1180   1.086       .  S
C1176      C1177   1.403       .  A
C1177      C1331   1.486       .  S
C1177      C1178   1.415       .  A
C1178      H1181   1.083       .  S
C1182      C1345   1.496       .  S
C1182      C1183   1.412       .  A
C1182      C1187   1.431       .  A
C1183      H1188   1.083       .  S
C1183      C1184   1.389       .  A
C1184      C1389   1.488       .  S
C1184      C1185   1.393       .  A
C1185      H1189   1.085       .  S
C1185      C1186   1.409       .  A
C1186      C1187   1.431       .  A
C1187      H1190   1.083       .  S
N1191      C1196   1.342   1_556  A
N1191      C1684   1.346       .  A
N1191      H1223   1.038       .  S
N1192      C1200   1.348       .  A
N1193      C1198   1.360   1_556  A
N1193      C1686   1.362       .  A
N1193      H1224   1.034       .  S
N1194      C1202   1.347       .  A
C1195      N1680   1.346       .  A
C1195      C1203   1.383       .  A
C1195      C1211   1.401       .  A
C1196      C1212   1.396       .  A
C1196      C1204   1.378       .  A
C1197      N1682   1.359       .  A
C1197      C1205   1.387       .  A
C1197      C1214   1.427       .  A
C1198      C1213   1.430       .  A
C1198      C1206   1.388       .  A
C1199      C1211   1.406       .  A
C1199      C1207   1.379       .  A
C1200      C1214   1.429       .  A
C1200      C1208   1.393       .  A
C1201      C1209   1.377       .  A
C1201      C1212   1.398       .  A
C1202      C1210   1.394       .  A
C1202      C1213   1.420       .  A
C1203      H1215   1.082       .  S
C1203      C1693   1.376       .  A
C1204      H1216   1.073       .  S
C1204      C1692   1.378   1_554  A
C1205      H1217   1.081       .  S
C1205      C1695   1.374       .  A
C1206      H1218   1.083       .  S
C1206      C1694   1.373   1_554  A
C1207      H1219   1.078       .  S
C1208      H1220   1.082       .  S
C1209      H1221   1.082       .  S
C1210      H1222   1.082       .  S
C1211      C1399   1.492       .  S
C1212      C1409   1.489       .  S
C1213      C1422   1.488       .  S
C1214      C1392   1.489       .  S
C1225      C1226   1.411       .  A
C1225      C1230   1.396       .  A
C1226      H1231   1.083       .  S
C1226      C1227   1.415       .  A
C1227      C1295   1.483       .  S
C1227      C1228   1.408       .  A
C1228      H1232   1.084       .  S
C1228      C1229   1.400       .  A
C1229      C1379   1.465       .  S
C1229      C1230   1.385       .  A
C1230      H1233   1.087       .  S
C1234      C1310   1.475       .  S
C1234      C1235   1.405       .  A
C1234      C1239   1.411       .  A
C1235      H1240   1.086       .  S
C1235      C1236   1.386       .  A
C1236      C1369   1.463       .  S
C1236      C1237   1.389       .  A
C1237      H1241   1.084       .  S
C1237      C1238   1.401       .  A
C1238      C1239   1.411       .  A
C1239      H1242   1.081       .  S
C1243      C1244   1.409       .  A
C1243      C1248   1.416       .  A
C1244      H1249   1.085       .  S
C1244      C1245   1.391       .  A
C1245      C1362   1.481       .  S
C1245      C1246   1.396       .  A
C1246      H1250   1.084       .  S
C1246      C1247   1.412       .  A
C1247      C1315   1.488       .  S
C1247      C1248   1.418       .  A
C1248      H1251   1.081       .  S
C1252      C1303   1.501       .  S
C1252      C1253   1.428       .  A
C1252      C1257   1.413       .  A
C1253      H1258   1.083       .  S
C1253      C1254   1.428       .  A
C1254      C1255   1.409       .  A
C1255      H1259   1.083       .  S
C1255      C1256   1.389       .  A
C1256      C1349   1.483       .  S
C1256      C1257   1.391       .  A
C1257      H1260   1.083       .  S
N1261      C1266   1.359       .  A
N1261      H1293   1.042       .  S
N1262      C1269   1.341       .  A
N1262      C3226   1.354       .  A
N1263      C1268   1.355       .  A
N1263      H1294   1.041       .  S
N1264      C1271   1.345       .  A
N1264      C3228   1.350       .  A
C1265      C1273   1.382       .  A
C1265      C1281   1.410       .  A
C1266      C1282   1.415       .  A
C1266      C1274   1.385       .  A
C1267      C1275   1.390       .  A
C1267      C1284   1.406       .  A
C1268      C1283   1.416       .  A
C1268      C1276   1.386       .  A
C1269      C1281   1.409       .  A
C1269      C1277   1.392       .  A
C1270      N3218   1.356       .  A
C1270      C1284   1.401   1_655  A
C1270      C1278   1.377       .  A
C1271      C1279   1.387       .  A
C1271      C1282   1.412       .  A
C1272      N3220   1.349       .  A
C1272      C1280   1.385       .  A
C1272      C1283   1.405   1_655  A
C1273      H1285   1.083       .  S
C1274      H1286   1.082       .  S
C1275      H1287   1.083       .  S
C1276      H1288   1.082       .  S
C1277      H1289   1.081       .  S
C1277      C3234   1.368       .  A
C1278      H1290   1.083       .  S
C1278      C3233   1.366       .  A
C1279      H1291   1.083       .  S
C1279      C3236   1.374       .  A
C1280      H1292   1.082   1_655  S
C1280      C3235   1.375       .  A
C1281      C1372   1.479       .  S
C1282      C1352   1.489       .  S
C1283      C1382   1.481       .  S
C1284      C1359   1.494       .  S
C1295      N1313   1.354       .  A
C1295      C1332   1.464       .  S
N1296      N1313   1.324       .  A
N1296      N1318   1.318       .  A
C1297      N1322   1.351       .  A
C1297      C1335   1.474       .  S
C1297      H1342   1.082       .  S
H1298      C1339   1.081       .  S
C1299      N1323   1.330       .  A
C1299      C1303   1.459       .  S
C1299      H1328   1.082       .  S
Co1300     N1340   2.114       .  S
Co1300     N1316   2.072       .  S
Co1300    Cl1344   2.434       .  S
N1301      C1339   1.350       .  A
N1301      N1308   1.321       .  A
Co1302     N1322   2.109       .  S
Co1302     N1309   2.105       .  S
Co1302    Cl1344   2.486       .  S
C1303      N1341   1.364       .  A
N1304      N1311   1.320       .  A
N1304      N1334   1.335       .  A
N1304     Co1337   2.099   1_565  S
N1305      N1323   1.319       .  A
N1305      N1341   1.339       .  A
N1306      C1335   1.349       .  A
N1306      N1316   1.314       .  A
H1307      C1332   1.082       .  S
N1308      N1329   1.317       .  A
N1309      N1327   1.318       .  A
N1309      N1314   1.328       .  A
C1310      N1314   1.358       .  A
C1310      C1338   1.468       .  S
N1311      C1326   1.334       .  A
C1312      N1340   1.355       .  A
C1312      C1315   1.479       .  S
C1312      H1346   1.082       .  S
C1315      N1336   1.347       .  A
N1316      N1322   1.319       .  A
N1317      C1343   1.329       .  A
N1317      N1319   1.312       .  A
N1317     Co1333   2.064       .  S
N1318      C1332   1.344       .  A
N1319      N1347   1.333       .  A
H1320      C1343   1.081       .  S
H1321      C1338   1.082       .  S
N1323     Co1337   2.088   1_565  S
N1324      N1336   1.319       .  A
N1324      N1340   1.316       .  A
N1324     Co1333   2.070       .  S
C1325      N1329   1.347       .  A
C1325      C1339   1.465       .  S
C1326      C1345   1.467       .  S
C1326      H1330   1.082       .  S
N1327      C1338   1.329       .  A
C1331      N1347   1.362       .  A
C1331      C1343   1.463       .  S
Co1333    Cl1344   2.425       .  S
N1334      C1345   1.357       .  A
C1348      C1349   1.407       .  A
C1348      C1353   1.381       .  A
C1348      F1355   1.358       .  S
C1349      C1350   1.408       .  A
C1350      C1351   1.413       .  A
C1350      F1357   1.356       .  S
C1351      C1352   1.408       .  A
C1351      F1356   1.356       .  S
C1352      C1353   1.401       .  A
C1353      F1354   1.356       .  S
C1358      C1359   1.413       .  A
C1358      C1363   1.401       .  A
C1358      F1365   1.355       .  S
C1359      C1360   1.402       .  A
C1360      C1361   1.403       .  A
C1360      F1367   1.356       .  S
C1361      C1362   1.407       .  A
C1361      F1366   1.358       .  S
C1362      C1363   1.401       .  A
C1363      F1364   1.358       .  S
C1368      C1369   1.392       .  A
C1368      C1373   1.390       .  A
C1368      F1375   1.358       .  S
C1369      C1370   1.410       .  A
C1370      C1371   1.397       .  A
C1370      F1377   1.358       .  S
C1371      C1372   1.400       .  A
C1371      F1376   1.357       .  S
C1372      C1373   1.412       .  A
C1373      F1374   1.353       .  S
C1378      C1379   1.407       .  A
C1378      C1383   1.395       .  A
C1378      F1385   1.357       .  S
C1379      C1380   1.400       .  A
C1380      C1381   1.396       .  A
C1380      F1387   1.358       .  S
C1381      C1382   1.408       .  A
C1381      F1386   1.356   1_455  S
C1382      C1383   1.391       .  A
C1383      F1384   1.352       .  S
C1388      C1389   1.405       .  A
C1388      C1393   1.413       .  A
C1388      F1395   1.356       .  S
C1389      C1390   1.412       .  A
C1390      C1391   1.378       .  A
C1390      F1397   1.354       .  S
C1391      C1392   1.398       .  A
C1391      F1396   1.360       .  S
C1392      C1393   1.411       .  A
C1393      F1394   1.355       .  S
C1398      C1399   1.409       .  A
C1398      C1403   1.393       .  A
C1398      F1405   1.347       .  S
C1399      C1400   1.400       .  A
C1400      C1401   1.400       .  A
C1400      F1407   1.351       .  S
C1401      C1402   1.410       .  A
C1401      F1406   1.357       .  S
C1402      C1403   1.394       .  A
C1403      F1404   1.358       .  S
C1408      C1409   1.411       .  A
C1408      C1413   1.396       .  A
C1408      F1415   1.357       .  S
C1409      C1410   1.399       .  A
C1410      C1411   1.406       .  A
C1410      F1417   1.356       .  S
C1411      C1412   1.407       .  A
C1411      F1416   1.354       .  S
C1412      C1413   1.399       .  A
C1413      F1414   1.358       .  S
C1418      C1419   1.404       .  A
C1418      C1423   1.411       .  A
C1418      F1425   1.355       .  S
C1419      C1420   1.408       .  A
C1420      C1421   1.382       .  A
C1420      F1427   1.358       .  S
C1421      C1422   1.401       .  A
C1421      F1426   1.359       .  S
C1422      C1423   1.408       .  A
C1423      F1424   1.356       .  S
C1428      C1429   1.409       .  A
C1428      C1433   1.406       .  A
C1428      F1435   1.357       .  S
C1429      C1430   1.403       .  A
C1430      C1431   1.392       .  A
C1430      F1437   1.358       .  S
C1431      C1432   1.408       .  A
C1431      F1436   1.356       .  S
C1432      C1433   1.403       .  A
C1433      F1434   1.354       .  S
C1438      C1439   1.397       .  A
C1438      C1443   1.394       .  A
C1438      F1445   1.358       .  S
C1439      C1440   1.409       .  A
C1440      C1441   1.398       .  A
C1440      F1447   1.358       .  S
C1441      C1442   1.398       .  A
C1441      F1446   1.357       .  S
C1442      C1443   1.411       .  A
C1443      F1444   1.357       .  S
C1448      C1449   1.402       .  A
C1448      C1453   1.379       .  A
C1448      F1455   1.359       .  S
C1449      C1450   1.409       .  A
C1450      C1451   1.410       .  A
C1450      F1457   1.357       .  S
C1451      C1452   1.407       .  A
C1451      F1456   1.357       .  S
C1452      C1453   1.405       .  A
C1453      F1454   1.359       .  S
C1458      C1459   1.413       .  A
C1458      C1463   1.413       .  A
C1458      F1465   1.356       .  S
C1459      C1460   1.399       .  A
C1460      C1461   1.377       .  A
C1460      F1467   1.360       .  S
C1461      C1462   1.407       .  A
C1461      F1466   1.355       .  S
C1462      C1463   1.408       .  A
C1463      F1464   1.357       .  S
C1468      N1486   1.349       .  A
C1468      C1505   1.471       .  S
C1468      C1653   1.487       .  S
N1469      N1486   1.324       .  A
N1469      N1491   1.320       .  A
C1470      N1495   1.348       .  A
C1470      C1508   1.470       .  S
C1470      H1515   1.081       .  S
H1471      C1512   1.081       .  S
C1472      N1496   1.316       .  A
C1472      C1476   1.449       .  S
C1472      H1501   1.078       .  S
Co1473     N1513   2.097       .  S
Co1473     N1489   2.083       .  S
N1474      C1512   1.351       .  A
N1474      N1481   1.321       .  A
N1474     Co1475   2.084       .  S
Co1475     N1478   2.128       .  S
Co1475    Cl1517   2.486       .  S
C1476      N1514   1.363       .  A
C1476      C1644   1.489       .  S
N1477      N1484   1.318       .  A
N1477      N1507   1.337       .  A
N1477     Co1510   2.119       .  S
N1478      N1496   1.320       .  A
N1478      N1514   1.339       .  A
N1479      C1508   1.352       .  A
N1479      N1489   1.317       .  A
H1480      C1505   1.081       .  S
N1481      N1502   1.321       .  A
N1482      N1500   1.321       .  A
N1482      N1487   1.338       .  A
C1483      N1487   1.363       .  A
C1483      C1511   1.463       .  S
C1483      C1675   1.498       .  S
N1484      C1499   1.335       .  A
C1485      N1513   1.347       .  A
C1485      C1488   1.470       .  S
C1485      H1519   1.082       .  S
C1488      N1509   1.349       .  A
C1488      C1662   1.476       .  S
N1489      N1495   1.317       .  A
N1490      C1516   1.333       .  A
N1490      N1492   1.313       .  A
N1490     Co1506   2.072       .  S
N1491      C1505   1.349       .  A
N1492      N1520   1.331       .  A
H1493      C1516   1.082       .  S
H1494      C1511   1.075       .  S
N1496     Co1510   2.047       .  S
N1497      N1509   1.319       .  A
N1497      N1513   1.315       .  A
N1497     Co1506   2.068       .  S
C1498      N1502   1.353       .  A
C1498      C1512   1.465       .  S
C1498      C1530   1.489       .  S
C1499      C1518   1.462       .  S
C1499      H1503   1.081       .  S
N1500      C1511   1.322       .  A
C1504      N1520   1.362       .  A
C1504      C1516   1.466       .  S
C1504      C1541   1.481       .  S
N1507      C1518   1.362       .  A
C1508      C1552   1.473       .  S
Co1510    Cl1517   2.456       .  S
C1518      C1521   1.501       .  S
C1521      C1522   1.425       .  A
C1521      C1526   1.415       .  A
C1522      H1527   1.080       .  S
C1522      C1523   1.427       .  A
C1523      C1621   1.497       .  S
C1523      C1524   1.407       .  A
C1524      H1528   1.086       .  S
C1524      C1525   1.392       .  A
C1525      C1951   1.483       .  S
C1525      C1526   1.397       .  A
C1526      H1529   1.082       .  S
C1530      C1531   1.408       .  A
C1530      C1535   1.427       .  A
C1531      H1536   1.084       .  S
C1531      C1532   1.389       .  A
C1532      C1941   1.474       .  S
C1532      C1533   1.391       .  A
C1533      H1537   1.085       .  S
C1533      C1534   1.408       .  A
C1534      C1631   1.497       .  S
C1534      C1535   1.421       .  A
C1535      H1538   1.083       .  S
C1539      C1641   1.480       .  S
C1539      C1540   1.416       .  A
C1539      C1544   1.404       .  A
C1540      H1545   1.081       .  S
C1540      C1541   1.415       .  A
C1541      C1542   1.401       .  A
C1542      H1546   1.086       .  S
C1542      C1543   1.388       .  A
C1543      C1928   1.466       .  S
C1543      C1544   1.394       .  A
C1544      H1547   1.084       .  S
C1548      C1627   1.489       .  S
C1548      C1549   1.417       .  A
C1548      C1553   1.415       .  A
C1549      H1554   1.083       .  S
C1549      C1550   1.403       .  A
C1550      C1918   1.481       .  S
C1550      C1551   1.386       .  A
C1551      H1555   1.086       .  S
C1551      C1552   1.397       .  A
C1552      C1553   1.412       .  A
C1553      H1556   1.083       .  S
N1557      C1562   1.346   1_554  A
N1557      C3517   1.346   1_554  A
N1557      H1589   1.034       .  S
N1558      C1566   1.346       .  A
N1559      C1564   1.358       .  A
N1559      C3519   1.360       .  A
N1559      H1590   1.040       .  S
N1560      C1568   1.347       .  A
C1561      N3513   1.349   1_556  A
C1561      C1569   1.384       .  A
C1561      C1577   1.406       .  A
C1562      C1578   1.400       .  A
C1562      C1570   1.378       .  A
C1563      N3515   1.357       .  A
C1563      C1571   1.386       .  A
C1563      C1580   1.425       .  A
C1564      C1579   1.422       .  A
C1564      C1572   1.388       .  A
C1565      C1577   1.400   1_554  A
C1565      C1573   1.375       .  A
C1566      C1580   1.430       .  A
C1566      C1574   1.398       .  A
C1567      C1575   1.377       .  A
C1567      C1578   1.405   1_554  A
C1568      C1576   1.390       .  A
C1568      C1579   1.408       .  A
C1569      H1581   1.080       .  S
C1569      C3526   1.358       .  A
C1570      H1582   1.072       .  S
C1570      C3525   1.363       .  A
C1571      H1583   1.083       .  S
C1571      C3528   1.380   1_455  A
C1572      H1584   1.083       .  S
C1572      C3527   1.372       .  A
C1573      H1585   1.083       .  S
C1574      H1586   1.080       .  S
C1575      H1587   1.083       .  S
C1576      H1588   1.082       .  S
C1577      C1931   1.478       .  S
C1578      C1921   1.489       .  S
C1579      C1938   1.487       .  S
C1580      C1948   1.483       .  S
C1591      N1609   1.344       .  A
C1591      C1628   1.486       .  S
C1591      C1732   1.497       .  S
N1592      N1609   1.317       .  A
N1592      N1614   1.317       .  A
N1592     Co3585   2.056       .  S
C1593      N1618   1.362       .  A
C1593      C1631   1.480       .  S
C1593      H1638   1.081       .  S
H1594      C1635   1.081       .  S
C1595      N1619   1.330       .  A
C1595      C1599   1.463       .  S
C1595      H1624   1.082       .  S
Co1596     N3570   2.134       .  S
Co1596     N3560   2.059       .  S
Co1596     N1636   2.065       .  S
Co1596     N1612   2.075       .  S
Co1596    Cl1640   2.466       .  S
N1597      C1635   1.361       .  A
N1597      N1604   1.323       .  A
N1597     Co3554   2.134       .  S
Co1598     N3553   2.149       .  S
Co1598     N3557   2.099       .  S
Co1598     N1618   2.125       .  S
Co1598     N1605   2.135       .  S
Co1598    Cl1640   2.477       .  S
C1599      N1637   1.361       .  A
C1599      C1714   1.481       .  S
N1600      N1607   1.315       .  A
N1600      N1630   1.328       .  A
N1600     Co3589   2.085       .  S
N1601      N1619   1.318       .  A
N1601      N1637   1.333       .  A
N1601     Co3554   2.110       .  S
N1602      C1631   1.346       .  A
N1602      N1612   1.315       .  A
H1603      C1628   1.078       .  S
N1604      N1625   1.312       .  A
N1604     Co3552   2.078       .  S
N1605      N1623   1.323       .  A
N1605      N1610   1.342       .  A
C1606      N1610   1.365       .  A
C1606      C1634   1.460       .  S
C1606      C1743   1.508       .  S
N1607      C1622   1.338       .  A
N1607     Co3585   2.086       .  S
C1608      N1636   1.343       .  A
C1608      C1611   1.457       .  S
C1608      H1642   1.082       .  S
C1611      N1632   1.357       .  A
C1611      C1727   1.477       .  S
N1612      N1618   1.320       .  A
N1613      C1639   1.334       .  A
N1613      N1615   1.318       .  A
N1613     Co1629   2.066       .  S
N1614      C1628   1.360       .  A
N1614     Co3552   2.138       .  S
N1615      N1643   1.333       .  A
N1615     Co1633   2.122       .  S
H1616      C1639   1.082       .  S
H1617      C1634   1.082       .  S
N1619     Co3589   2.076       .  S
N1620      N1632   1.324       .  A
N1620      N1636   1.317       .  A
N1620     Co1629   2.110       .  S
C1621      N1625   1.348       .  A
C1621      C1635   1.479       .  S
C1622      C1641   1.465       .  S
C1622      H1626   1.082       .  S
N1623      C1634   1.330       .  A
N1623     Co1633   2.094       .  S
C1627      N1643   1.362       .  A
C1627      C1639   1.456       .  S
Co1629     N3548   2.058       .  S
Co1629     N3563   2.097       .  S
Co1629    Cl1640   2.427       .  S
N1630      C1641   1.354       .  A
Co1633     N3556   2.099       .  S
Co1633     N3575   2.090       .  S
Co1633    Cl1640   2.451       .  S
C1644      C1645   1.411       .  A
C1644      C1649   1.417       .  A
C1645      H1650   1.085       .  S
C1645      C1646   1.393       .  A
C1646      C1908   1.485       .  S
C1646      C1647   1.393       .  A
C1647      H1651   1.084       .  S
C1647      C1648   1.412       .  A
C1648      C1814   1.484       .  S
C1648      C1649   1.420       .  A
C1649      H1652   1.083       .  S
C1653      C1654   1.417       .  A
C1653      C1658   1.415       .  A
C1654      H1659   1.084       .  S
C1654      C1655   1.404       .  A
C1655      C1901   1.475       .  S
C1655      C1656   1.385       .  A
C1656      H1660   1.086       .  S
C1656      C1657   1.398       .  A
C1657      C1824   1.473       .  S
C1657      C1658   1.409       .  A
C1658      H1661   1.083       .  S
C1662      C1663   1.410       .  A
C1662      C1667   1.415       .  A
C1663      H1668   1.084       .  S
C1663      C1664   1.391       .  A
C1664      C1891   1.478       .  S
C1664      C1665   1.389       .  A
C1665      H1669   1.085       .  S
C1665      C1666   1.408       .  A
C1666      C1820   1.483       .  S
C1666      C1667   1.411       .  A
C1667      H1670   1.083       .  S
C1671      C1834   1.493       .  S
C1671      C1672   1.412       .  A
C1671      C1676   1.431       .  A
C1672      H1677   1.083       .  S
C1672      C1673   1.388       .  A
C1673      C1878   1.491       .  S
C1673      C1674   1.391       .  A
C1674      H1678   1.085       .  S
C1674      C1675   1.409       .  A
C1675      C1676   1.430       .  A
C1676      H1679   1.083       .  S
N1680      C1685   1.342       .  A
N1680      H1712   1.036       .  S
N1681      C1689   1.343       .  A
N1682      C1687   1.362       .  A
N1682      H1713   1.033       .  S
N1683      C1691   1.347       .  A
C1684      C1692   1.383       .  A
C1684      C1700   1.402       .  A
C1685      C1701   1.397       .  A
C1685      C1693   1.380       .  A
C1686      C1694   1.386       .  A
C1686      C1703   1.427       .  A
C1687      C1702   1.428       .  A
C1687      C1695   1.386       .  A
C1688      C1700   1.410       .  A
C1688      C1696   1.380       .  A
C1689      C1703   1.422       .  A
C1689      C1697   1.396       .  A
C1690      C1698   1.377       .  A
C1690      C1701   1.398       .  A
C1691      C1699   1.394       .  A
C1691      C1702   1.418       .  A
C1692      H1704   1.081       .  S
C1693      H1705   1.074       .  S
C1694      H1706   1.081       .  S
C1695      H1707   1.083       .  S
C1696      H1708   1.077       .  S
C1697      H1709   1.082       .  S
C1698      H1710   1.083       .  S
C1699      H1711   1.082       .  S
C1700      C1888   1.497       .  S
C1701      C1898   1.484       .  S
C1702      C1911   1.491       .  S
C1703      C1881   1.488       .  S
C1714      C1715   1.414       .  A
C1714      C1719   1.398       .  A
C1715      H1720   1.083       .  S
C1715      C1716   1.420       .  A
C1716      C1784   1.487       .  S
C1716      C1717   1.405       .  A
C1717      H1721   1.084       .  S
C1717      C1718   1.399       .  A
C1718      C1868   1.464       .  S
C1718      C1719   1.387       .  A
C1719      H1722   1.086       .  S
C1723      C1799   1.482       .  S
C1723      C1724   1.400       .  A
C1723      C1728   1.419       .  A
C1724      H1729   1.087       .  S
C1724      C1725   1.385       .  A
C1725      C1858   1.459       .  S
C1725      C1726   1.390       .  A
C1726      H1730   1.084       .  S
C1726      C1727   1.398       .  A
C1727      C1728   1.419       .  A
C1728      H1731   1.082       .  S
C1732      C1733   1.414       .  A
C1732      C1737   1.419       .  A
C1733      H1738   1.085       .  S
C1733      C1734   1.395       .  A
C1734      C1851   1.485       .  S
C1734      C1735   1.395       .  A
C1735      H1739   1.084       .  S
C1735      C1736   1.412       .  A
C1736      C1804   1.493       .  S
C1736      C1737   1.422       .  A
C1737      H1740   1.082       .  S
C1741      C1792   1.505       .  S
C1741      C1742   1.431       .  A
C1741      C1746   1.413       .  A
C1742      H1747   1.082       .  S
C1742      C1743   1.430       .  A
C1743      C1744   1.413       .  A
C1744      H1748   1.083       .  S
C1744      C1745   1.392       .  A
C1745      C1838   1.484       .  S
C1745      C1746   1.393       .  A
C1746      H1749   1.084       .  S
N1750      C1755   1.362       .  A
N1750      H1782   1.039       .  S
N1751      C1758   1.341       .  A
N1751      C3715   1.355       .  A
N1752      C1757   1.359       .  A
N1752      H1783   1.041       .  S
N1753      C1760   1.344       .  A
N1753      C3717   1.350       .  A
C1754      C1762   1.383       .  A
C1754      C1770   1.408       .  A
C1755      C1771   1.423       .  A
C1755      C1763   1.386       .  A
C1756      C1764   1.389       .  A
C1756      C1773   1.407       .  A
C1757      C1772   1.419       .  A
C1757      C1765   1.385       .  A
C1758      C1770   1.410       .  A
C1758      C1766   1.393       .  A
C1759      N3707   1.357       .  A
C1759      C1773   1.405   1_655  A
C1759      C1767   1.379       .  A
C1760      C1768   1.391       .  A
C1760      C1771   1.417       .  A
C1761      N3709   1.349   1_455  A
C1761      C1769   1.388   1_455  A
C1761      C1772   1.408       .  A
C1762      H1774   1.083       .  S
C1763      H1775   1.083       .  S
C1764      H1776   1.083       .  S
C1765      H1777   1.082       .  S
C1766      H1778   1.081       .  S
C1766      C3723   1.364       .  A
C1767      H1779   1.083       .  S
C1767      C3722   1.360       .  A
C1768      H1780   1.083       .  S
C1768      C3725   1.374       .  A
C1769      H1781   1.082   1_655  S
C1769      C3724   1.375       .  A
C1770      C1861   1.475       .  S
C1771      C1841   1.490       .  S
C1772      C1871   1.478       .  S
C1773      C1848   1.497       .  S
C1784      N1802   1.359       .  A
C1784      C1821   1.459       .  S
N1785      N1802   1.328       .  A
N1785      N1807   1.318       .  A
C1786      N1811   1.351       .  A
C1786      C1824   1.473       .  S
C1786      H1831   1.082       .  S
H1787      C1828   1.081       .  S
C1788      N1812   1.333       .  A
C1788      C1792   1.461       .  S
C1788      H1817   1.082       .  S
Co1789     N1829   2.114       .  S
Co1789     N1805   2.070       .  S
Co1789    Cl1833   2.438       .  S
N1790      C1828   1.352       .  A
N1790      N1797   1.321       .  A
Co1791     N1811   2.111       .  S
Co1791     N1798   2.109       .  S
Co1791    Cl1833   2.483       .  S
C1792      N1830   1.365       .  A
N1793      N1800   1.320       .  A
N1793      N1823   1.333       .  A
N1793     Co1826   2.097   1_565  S
N1794      N1812   1.319       .  A
N1794      N1830   1.339       .  A
N1795      C1824   1.347       .  A
N1795      N1805   1.314       .  A
H1796      C1821   1.082       .  S
N1797      N1818   1.318       .  A
N1798      N1816   1.318       .  A
N1798      N1803   1.330       .  A
C1799      N1803   1.360       .  A
C1799      C1827   1.472       .  S
N1800      C1815   1.333       .  A
C1801      N1829   1.356       .  A
C1801      C1804   1.478       .  S
C1801      H1835   1.081       .  S
C1804      N1825   1.348       .  A
N1805      N1811   1.320       .  A
N1806      C1832   1.325       .  A
N1806      N1808   1.312       .  A
N1806     Co1822   2.052       .  S
N1807      C1821   1.342       .  A
N1808      N1836   1.333       .  A
H1809      C1832   1.082       .  S
H1810      C1827   1.080       .  S
N1812     Co1826   2.090   1_565  S
N1813      N1825   1.321       .  A
N1813      N1829   1.315       .  A
N1813     Co1822   2.072       .  S
C1814      N1818   1.347       .  A
C1814      C1828   1.469       .  S
C1815      C1834   1.469       .  S
C1815      H1819   1.082       .  S
N1816      C1827   1.333       .  A
C1820      N1836   1.364       .  A
C1820      C1832   1.457       .  S
Co1822    Cl1833   2.424       .  S
N1823      C1834   1.356       .  A
C1837      C1838   1.405       .  A
C1837      C1842   1.377       .  A
C1837      F1844   1.358       .  S
C1838      C1839   1.411       .  A
C1839      C1840   1.415       .  A
C1839      F1846   1.356       .  S
C1840      C1841   1.409       .  A
C1840      F1845   1.357       .  S
C1841      C1842   1.399       .  A
C1842      F1843   1.353       .  S
C1847      C1848   1.414       .  A
C1847      C1852   1.400       .  A
C1847      F1854   1.355       .  S
C1848      C1849   1.402       .  A
C1849      C1850   1.406       .  A
C1849      F1856   1.356       .  S
C1850      C1851   1.408       .  A
C1850      F1855   1.357       .  S
C1851      C1852   1.401       .  A
C1852      F1853   1.358       .  S
C1857      C1858   1.392       .  A
C1857      C1862   1.389       .  A
C1857      F1864   1.358       .  S
C1858      C1859   1.410       .  A
C1859      C1860   1.393       .  A
C1859      F1866   1.358       .  S
C1860      C1861   1.398       .  A
C1860      F1865   1.358       .  S
C1861      C1862   1.413       .  A
C1862      F1863   1.354       .  S
C1867      C1868   1.406       .  A
C1867      C1872   1.395       .  A
C1867      F1874   1.356       .  S
C1868      C1869   1.400       .  A
C1869      C1870   1.393       .  A
C1869      F1876   1.357       .  S
C1870      C1871   1.406       .  A
C1870      F1875   1.355   1_455  S
C1871      C1872   1.392       .  A
C1872      F1873   1.353       .  S
C1877      C1878   1.406       .  A
C1877      C1882   1.412       .  A
C1877      F1884   1.356       .  S
C1878      C1879   1.415       .  A
C1879      C1880   1.378       .  A
C1879      F1886   1.352       .  S
C1880      C1881   1.397       .  A
C1880      F1885   1.360       .  S
C1881      C1882   1.409       .  A
C1882      F1883   1.355       .  S
C1887      C1888   1.410       .  A
C1887      C1892   1.396       .  A
C1887      F1894   1.349       .  S
C1888      C1889   1.402       .  A
C1889      C1890   1.401       .  A
C1889      F1896   1.352       .  S
C1890      C1891   1.409       .  A
C1890      F1895   1.358       .  S
C1891      C1892   1.397       .  A
C1892      F1893   1.358       .  S
C1897      C1898   1.408       .  A
C1897      C1902   1.396       .  A
C1897      F1904   1.358       .  S
C1898      C1899   1.395       .  A
C1899      C1900   1.404       .  A
C1899      F1906   1.354       .  S
C1900      C1901   1.407       .  A
C1900      F1905   1.353       .  S
C1901      C1902   1.400       .  A
C1902      F1903   1.358       .  S
C1907      C1908   1.405       .  A
C1907      C1912   1.412       .  A
C1907      F1914   1.355       .  S
C1908      C1909   1.407       .  A
C1909      C1910   1.385       .  A
C1909      F1916   1.358       .  S
C1910      C1911   1.402       .  A
C1910      F1915   1.359       .  S
C1911      C1912   1.409       .  A
C1912      F1913   1.357       .  S
C1917      C1918   1.408       .  A
C1917      C1922   1.404       .  A
C1917      F1924   1.358       .  S
C1918      C1919   1.404       .  A
C1919      C1920   1.396       .  A
C1919      F1926   1.358       .  S
C1920      C1921   1.408       .  A
C1920      F1925   1.358   1_556  S
C1921      C1922   1.405       .  A
C1922      F1923   1.356       .  S
C1927      C1928   1.398       .  A
C1927      C1932   1.395       .  A
C1927      F1934   1.358       .  S
C1928      C1929   1.408       .  A
C1929      C1930   1.396       .  A
C1929      F1936   1.358       .  S
C1930      C1931   1.399       .  A
C1930      F1935   1.357       .  S
C1931      C1932   1.409       .  A
C1932      F1933   1.359   1_556  S
C1937      C1938   1.404       .  A
C1937      C1942   1.380       .  A
C1937      F1944   1.359       .  S
C1938      C1939   1.408       .  A
C1939      C1940   1.410       .  A
C1939      F1946   1.356       .  S
C1940      C1941   1.406       .  A
C1940      F1945   1.357       .  S
C1941      C1942   1.404       .  A
C1942      F1943   1.359       .  S
C1947      C1948   1.411       .  A
C1947      C1952   1.412       .  A
C1947      F1954   1.356       .  S
C1948      C1949   1.400       .  A
C1949      C1950   1.379       .  A
C1949      F1956   1.360       .  S
C1950      C1951   1.408       .  A
C1950      F1955   1.356       .  S
C1951      C1952   1.407       .  A
C1952      F1953   1.357       .  S
C1957      N1975   1.349       .  A
C1957      C1994   1.470       .  S
C1957      C2142   1.485       .  S
N1958      N1975   1.321       .  A
N1958      N1980   1.319       .  A
N1958     Co2484   2.086   1_554  S
C1959      N1984   1.351       .  A
C1959      C1997   1.475       .  S
C1959      H2004   1.081       .  S
H1960      C2001   1.081       .  S
C1961      N1985   1.321       .  A
C1961      C1965   1.454       .  S
C1961      H1990   1.079       .  S
Co1962     N2469   2.089       .  S
Co1962     N2459   2.100       .  S
Co1962     N2002   2.100       .  S
Co1962     N1978   2.078       .  S
Co1962    Cl2495   2.441       .  S
N1963      C2001   1.354       .  A
N1963      N1970   1.320       .  A
N1963     Co1964   2.091   1_554  S
Co1964     N1967   2.118   1_556  S
Co1964     N2473   2.098       .  S
Co1964     N2460   2.110       .  S
Co1964    Cl2006   2.483       .  S
C1965      N2003   1.360       .  A
C1965      C2133   1.489       .  S
N1966      N1973   1.319       .  A
N1966      N1996   1.337       .  A
N1966     Co1999   2.117   1_554  S
N1967      N1985   1.321       .  A
N1967      N2003   1.338       .  A
N1968      C1997   1.350       .  A
N1968      N1978   1.317       .  A
H1969      C1994   1.082       .  S
N1970      N1991   1.318       .  A
N1970     Co2451   2.100   1_554  S
N1971      N1989   1.321       .  A
N1971      N1976   1.337       .  A
N1971     Co2453   2.132       .  S
C1972      N1976   1.363       .  A
C1972      C2000   1.462       .  S
C1972      C2164   1.496       .  S
N1973      C1988   1.335       .  A
N1973     Co2484   2.089   1_554  S
C1974      N2002   1.349       .  A
C1974      C1977   1.472       .  S
C1974      H2008   1.082       .  S
C1977      N1998   1.349       .  A
C1977      C2151   1.482       .  S
N1978      N1984   1.318       .  A
N1979      C2005   1.332       .  A
N1979      N1981   1.314       .  A
N1979     Co1995   2.073       .  S
N1980      C1994   1.350       .  A
N1980     Co2451   2.100   1_554  S
N1981      N2009   1.332       .  A
N1981     Co2488   2.115       .  S
H1982      C2005   1.082       .  S
H1983      C2000   1.078       .  S
N1984     Co2453   2.108       .  S
N1985     Co1999   2.064   1_554  S
N1986      N1998   1.320       .  A
N1986      N2002   1.315       .  A
N1986     Co1995   2.068       .  S
C1987      N1991   1.351       .  A
C1987      C2001   1.469       .  S
C1987      C2019   1.491       .  S
C1988      C2007   1.461       .  S
C1988      H1992   1.081       .  S
N1989      C2000   1.325       .  A
N1989     Co2488   2.070       .  S
C1993      N2009   1.364       .  A
C1993      C2005   1.464       .  S
C1993      C2030   1.486       .  S
Co1995     N2447   2.099       .  S
Co1995     N2462   2.089       .  S
Co1995    Cl2495   2.428       .  S
N1996      C2007   1.361       .  A
C1997      C2041   1.477       .  S
Co1999     N2470   2.137       .  S
Co1999     N2478   2.081       .  S
Co1999    Cl2006   2.463       .  S
Cl2006    Co2451   2.433       .  S
Cl2006    Co2484   2.435       .  S
C2007      C2010   1.500       .  S
C2010      C2011   1.426       .  A
C2010      C2015   1.414       .  A
C2011      H2016   1.080       .  S
C2011      C2012   1.427       .  A
C2012      C2110   1.501       .  S
C2012      C2013   1.410       .  A
C2013      H2017   1.086       .  S
C2013      C2014   1.396       .  A
C2014      C2440   1.487       .  S
C2014      C2015   1.395       .  A
C2015      H2018   1.082       .  S
C2019      C2020   1.409       .  A
C2019      C2024   1.428       .  A
C2020      H2025   1.084       .  S
C2020      C2021   1.387       .  A
C2021      C2430   1.471       .  S
C2021      C2022   1.388       .  A
C2022      H2026   1.085       .  S
C2022      C2023   1.406       .  A
C2023      C2120   1.496       .  S
C2023      C2024   1.424       .  A
C2024      H2027   1.083       .  S
C2028      C2130   1.485       .  S
C2028      C2029   1.418       .  A
C2028      C2033   1.402       .  A
C2029      H2034   1.080       .  S
C2029      C2030   1.419       .  A
C2030      C2031   1.404       .  A
C2031      H2035   1.086       .  S
C2031      C2032   1.390       .  A
C2032      C2417   1.468       .  S
C2032      C2033   1.393       .  A
C2033      H2036   1.084       .  S
C2037      C2116   1.489       .  S
C2037      C2038   1.413       .  A
C2037      C2042   1.417       .  A
C2038      H2043   1.083       .  S
C2038      C2039   1.399       .  A
C2039      C2407   1.478       .  S
C2039      C2040   1.387       .  A
C2040      H2044   1.086       .  S
C2040      C2041   1.400       .  A
C2041      C2042   1.415       .  A
C2042      H2045   1.083       .  S
N2046      C2051   1.345   1_455  A
N2046      H2078   1.030       .  S
N2047      C2543   1.351       .  A
N2047      C2055   1.342       .  A
N2048      C2053   1.357   1_455  A
N2048      H2079   1.037       .  S
N2049      C2545   1.349       .  A
N2049      C2057   1.346       .  A
C2050      C2058   1.382       .  A
C2050      C2066   1.409       .  A
C2051      C2067   1.402       .  A
C2051      C2059   1.381   1_655  A
C2052      C2060   1.387       .  A
C2052      C2069   1.430       .  A
C2053      C2068   1.422       .  A
C2053      C2061   1.387       .  A
C2054      N2536   1.352       .  A
C2054      C2066   1.399       .  A
C2054      C2062   1.377       .  A
C2055      C2069   1.424       .  A
C2055      C2063   1.399       .  A
C2056      N2538   1.353       .  A
C2056      C2064   1.378       .  A
C2056      C2067   1.406       .  A
C2057      C2065   1.391       .  A
C2057      C2068   1.409       .  A
C2058      H2070   1.080       .  S
C2059      H2071   1.076   1_455  S
C2060      H2072   1.083       .  S
C2061      H2073   1.083       .  S
C2062      H2074   1.083       .  S
C2062      C2552   1.362       .  A
C2063      H2075   1.081       .  S
C2063      C2551   1.367       .  A
C2064      H2076   1.083       .  S
C2064      C2554   1.371       .  A
C2065      H2077   1.081       .  S
C2065      C2553   1.374       .  A
C2066      C2420   1.482       .  S
C2067      C2410   1.486       .  S
C2068      C2427   1.486       .  S
C2069      C2437   1.487       .  S
C2080      N2098   1.347       .  A
C2080      C2117   1.486       .  S
C2080      C2221   1.500       .  S
N2081      N2098   1.318       .  A
N2081      N2103   1.317       .  A
C2082      N2107   1.360       .  A
C2082      C2120   1.476       .  S
C2082      H2127   1.081       .  S
H2083      C2124   1.081       .  S
C2084      N2108   1.334       .  A
C2084      C2088   1.470       .  S
C2084      H2113   1.082       .  S
Co2085     N2125   2.084   1_455  S
Co2085     N2101   2.082   1_455  S
Co2085    Cl2129   2.457       .  S
N2086      C2124   1.363       .  A
N2086      N2093   1.321       .  A
Co2087     N2107   2.117   1_455  S
Co2087     N2094   2.111   1_455  S
Co2087    Cl2129   2.483       .  S
C2088      N2126   1.356       .  A
C2088      C2203   1.477       .  S
N2089      N2096   1.316       .  A
N2089      N2119   1.330       .  A
N2090      N2108   1.318       .  A
N2090      N2126   1.330       .  A
N2091      C2120   1.348       .  A
N2091      N2101   1.315       .  A
H2092      C2117   1.078       .  S
N2093      N2114   1.312       .  A
N2094      N2112   1.322       .  A
N2094      N2099   1.338       .  A
C2095      N2099   1.359       .  A
C2095      C2123   1.462       .  S
C2095      C2232   1.498       .  S
N2096      C2111   1.340       .  A
C2097      N2125   1.346       .  A
C2097      C2100   1.462       .  S
C2097      H2131   1.082       .  S
C2100      N2121   1.355       .  A
C2100      C2216   1.482       .  S
N2101      N2107   1.320       .  A
N2102      C2128   1.336       .  A
N2102      N2104   1.319       .  A
N2102     Co2118   2.077   1_655  S
N2103      C2117   1.360       .  A
N2104      N2132   1.332       .  A
N2104     Co2122   2.114   1_655  S
H2105      C2128   1.082       .  S
H2106      C2123   1.082       .  S
N2109      N2121   1.325       .  A
N2109      N2125   1.319       .  A
N2109     Co2118   2.106   1_655  S
C2110      N2114   1.347       .  A
C2110      C2124   1.481       .  S
C2111      C2130   1.468       .  S
C2111      H2115   1.082       .  S
N2112      C2123   1.330       .  A
N2112     Co2122   2.096   1_655  S
C2116      N2132   1.359       .  A
C2116      C2128   1.461       .  S
Co2118    Cl2129   2.433       .  S
N2119      C2130   1.356       .  A
Co2122    Cl2129   2.443       .  S
C2133      C2134   1.410       .  A
C2133      C2138   1.419       .  A
C2134      H2139   1.085       .  S
C2134      C2135   1.391       .  A
C2135      C2397   1.483       .  S
C2135      C2136   1.391       .  A
C2136      H2140   1.084       .  S
C2136      C2137   1.412       .  A
C2137      C2303   1.484       .  S
C2137      C2138   1.421       .  A
C2138      H2141   1.083       .  S
C2142      C2143   1.413       .  A
C2142      C2147   1.417       .  A
C2143      H2148   1.084       .  S
C2143      C2144   1.397       .  A
C2144      C2390   1.469       .  S
C2144      C2145   1.383       .  A
C2145      H2149   1.086       .  S
C2145      C2146   1.397       .  A
C2146      C2313   1.474       .  S
C2146      C2147   1.412       .  A
C2147      H2150   1.083       .  S
C2151      C2152   1.411       .  A
C2151      C2156   1.416       .  A
C2152      H2157   1.084       .  S
C2152      C2153   1.395       .  A
C2153      C2380   1.476       .  S
C2153      C2154   1.390       .  A
C2154      H2158   1.086       .  S
C2154      C2155   1.406       .  A
C2155      C2309   1.485       .  S
C2155      C2156   1.413       .  A
C2156      H2159   1.083       .  S
C2160      C2323   1.489       .  S
C2160      C2161   1.413       .  A
C2160      C2165   1.428       .  A
C2161      H2166   1.084       .  S
C2161      C2162   1.390       .  A
C2162      C2367   1.490       .  S
C2162      C2163   1.392       .  A
C2163      H2167   1.085       .  S
C2163      C2164   1.411       .  A
C2164      C2165   1.426       .  A
C2165      H2168   1.083       .  S
N2169      C2174   1.341   1_556  A
N2169      C2662   1.345       .  A
N2169      H2201   1.037   1_545  S
N2170      C3155   1.355       .  A
N2170      C2178   1.342       .  A
N2171      C2176   1.363   1_556  A
N2171      C2664   1.362       .  A
N2171      H2202   1.036       .  S
N2172      C3157   1.351       .  A
N2172      C2180   1.345       .  A
C2173      N2658   1.343       .  A
C2173      C2181   1.381       .  A
C2173      C2189   1.393       .  A
C2174      C2190   1.392       .  A
C2174      C2182   1.376       .  A
C2175      N2660   1.363       .  A
C2175      C2183   1.387       .  A
C2175      C2192   1.431       .  A
C2176      C2191   1.430       .  A
C2176      C2184   1.387       .  A
C2177      N3148   1.354       .  A
C2177      C2189   1.403   1_565  A
C2177      C2185   1.376       .  A
C2178      C2192   1.427       .  A
C2178      C2186   1.399       .  A
C2179      N3150   1.352       .  A
C2179      C2187   1.376       .  A
C2179      C2190   1.399   1_565  A
C2180      C2188   1.395       .  A
C2180      C2191   1.417       .  A
C2181      H2193   1.079       .  S
C2181      C2671   1.375       .  A
C2182      H2194   1.071       .  S
C2182      C2670   1.373   1_554  A
C2183      H2195   1.081       .  S
C2183      C2673   1.372       .  A
C2184      H2196   1.083       .  S
C2184      C2672   1.371   1_554  A
C2185      H2197   1.083       .  S
C2185      C3164   1.366       .  A
C2186      H2198   1.082       .  S
C2186      C3163   1.368       .  A
C2187      H2199   1.083       .  S
C2187      C3166   1.369       .  A
C2188      H2200   1.082       .  S
C2188      C3165   1.369       .  A
C2189      C2377   1.488       .  S
C2190      C2387   1.485       .  S
C2191      C2400   1.489       .  S
C2192      C2370   1.487       .  S
C2203      C2204   1.416       .  A
C2203      C2208   1.395       .  A
C2204      H2209   1.083       .  S
C2204      C2205   1.419       .  A
C2205      C2273   1.487       .  S
C2205      C2206   1.406       .  A
C2206      H2210   1.084       .  S
C2206      C2207   1.399       .  A
C2207      C2357   1.463       .  S
C2207      C2208   1.385       .  A
C2208      H2211   1.087       .  S
C2212      C2288   1.477       .  S
C2212      C2213   1.398       .  A
C2212      C2217   1.416       .  A
C2213      H2218   1.087       .  S
C2213      C2214   1.385       .  A
C2214      C2347   1.467       .  S
C2214      C2215   1.398       .  A
C2215      H2219   1.084       .  S
C2215      C2216   1.404       .  A
C2216      C2217   1.418       .  A
C2217      H2220   1.083       .  S
C2221      C2222   1.410       .  A
C2221      C2226   1.424       .  A
C2222      H2227   1.085       .  S
C2222      C2223   1.393       .  A
C2223      C2340   1.477       .  S
C2223      C2224   1.390       .  A
C2224      H2228   1.085       .  S
C2224      C2225   1.408       .  A
C2225      C2293   1.494       .  S
C2225      C2226   1.426       .  A
C2226      H2229   1.081       .  S
C2230      C2281   1.498       .  S
C2230      C2231   1.428       .  A
C2230      C2235   1.412       .  A
C2231      H2236   1.083       .  S
C2231      C2232   1.428       .  A
C2232      C2233   1.409       .  A
C2233      H2237   1.084       .  S
C2233      C2234   1.390       .  A
C2234      C2327   1.483       .  S
C2234      C2235   1.390       .  A
C2235      H2238   1.083       .  S
N2239      C2244   1.363       .  A
N2239      C3221   1.354       .  A
N2239      H2271   1.038       .  S
N2240      C2247   1.343       .  A
N2241      C2246   1.355       .  A
N2241      C3223   1.345       .  A
N2241      H2272   1.040       .  S
N2242      C2249   1.344       .  A
C2243      N3217   1.353   1_545  A
C2243      C2251   1.383   1_545  A
C2243      C2259   1.409       .  A
C2244      C2260   1.425       .  A
C2244      C2252   1.388       .  A
C2245      N3219   1.345   1_545  A
C2245      C2253   1.389       .  A
C2245      C2262   1.412       .  A
C2246      C2261   1.414       .  A
C2246      C2254   1.385       .  A
C2247      C2259   1.416       .  A
C2247      C2255   1.395       .  A
C2248      C2262   1.405       .  A
C2248      C2256   1.381       .  A
C2249      C2257   1.389       .  A
C2249      C2260   1.416       .  A
C2250      C2258   1.384       .  A
C2250      C2261   1.406       .  A
C2251      H2263   1.083   1_565  S
C2251      C3230   1.375       .  A
C2252      H2264   1.082       .  S
C2252      C3229   1.372       .  A
C2253      H2265   1.083       .  S
C2253      C3232   1.376   1_545  A
C2254      H2266   1.082       .  S
C2254      C3231   1.374       .  A
C2255      H2267   1.079       .  S
C2256      H2268   1.082       .  S
C2257      H2269   1.083       .  S
C2258      H2270   1.083       .  S
C2259      C2350   1.477       .  S
C2260      C2330   1.491       .  S
C2261      C2360   1.478       .  S
C2262      C2337   1.495       .  S
C2273      N2291   1.358       .  A
C2273      C2310   1.462       .  S
N2274      N2291   1.326       .  A
N2274      N2296   1.318       .  A
N2274     Co3289   2.109       .  S
C2275      N2300   1.350       .  A
C2275      C2313   1.471       .  S
C2275      H2320   1.082       .  S
H2276      C2317   1.081       .  S
C2277      N2301   1.331       .  A
C2277      C2281   1.462       .  S
C2277      H2306   1.082       .  S
Co2278     N3274   2.089   1_545  S
Co2278     N3264   2.087   1_545  S
Co2278     N2318   2.107       .  S
Co2278     N2294   2.076       .  S
Co2278    Cl2322   2.437       .  S
N2279      C2317   1.353       .  A
N2279      N2286   1.320       .  A
N2279     Co3258   2.089       .  S
Co2280     N3257   2.088   1_545  S
Co2280     N3261   2.111   1_545  S
Co2280     N2300   2.100       .  S
Co2280     N2287   2.094       .  S
Co2280    Cl2322   2.483       .  S
C2281      N2319   1.362       .  A
N2282      N2289   1.320       .  A
N2282      N2312   1.334       .  A
N2282     Co2315   2.101       .  S
N2283      N2301   1.319       .  A
N2283      N2319   1.337       .  A
N2283     Co3258   2.114       .  S
N2284      C2313   1.350       .  A
N2284      N2294   1.315       .  A
H2285      C2310   1.082       .  S
N2286      N2307   1.316       .  A
N2286     Co3256   2.088       .  S
N2287      N2305   1.318       .  A
N2287      N2292   1.327       .  A
C2288      N2292   1.356       .  A
C2288      C2316   1.477       .  S
N2289      C2304   1.330       .  A
N2289     Co3289   2.086       .  S
C2290      N2318   1.354       .  A
C2290      C2293   1.477       .  S
C2290      H2324   1.082       .  S
C2293      N2314   1.353       .  A
N2294      N2300   1.319       .  A
N2295      C2321   1.328       .  A
N2295      N2297   1.313       .  A
N2295     Co2311   2.059       .  S
N2296      C2310   1.344       .  A
N2296     Co3256   2.083       .  S
N2297      N2325   1.333       .  A
N2297     Co3293   2.107       .  S
H2298      C2321   1.082       .  S
H2299      C2316   1.080       .  S
N2301     Co2315   2.086       .  S
N2302      N2314   1.321       .  A
N2302      N2318   1.315       .  A
N2302     Co2311   2.084       .  S
C2303      N2307   1.347       .  A
C2303      C2317   1.468       .  S
C2304      C2323   1.463       .  S
C2304      H2308   1.082       .  S
N2305      C2316   1.334       .  A
N2305     Co3293   2.094       .  S
C2309      N2325   1.363       .  A
C2309      C2321   1.460       .  S
Co2311     N3252   2.097   1_545  S
Co2311     N3267   2.106   1_545  S
Co2311    Cl2322   2.428       .  S
N2312      C2323   1.357       .  A
Co2315     N3275   2.092       .  S
Co2315     N3283   2.088       .  S
Co2315    Cl3300   2.445       .  S
Cl2322    Co3293   2.452       .  S
C2326      C2327   1.408       .  A
C2326      C2331   1.380       .  A
C2326      F2333   1.357       .  S
C2327      C2328   1.407       .  A
C2328      C2329   1.412       .  A
C2328      F2335   1.356       .  S
C2329      C2330   1.410       .  A
C2329      F2334   1.356       .  S
C2330      C2331   1.401       .  A
C2331      F2332   1.357       .  S
C2336      C2337   1.410       .  A
C2336      C2341   1.399       .  A
C2336      F2343   1.350       .  S
C2337      C2338   1.403       .  A
C2338      C2339   1.400       .  A
C2338      F2345   1.354       .  S
C2339      C2340   1.405       .  A
C2339      F2344   1.358       .  S
C2340      C2341   1.399       .  A
C2341      F2342   1.358       .  S
C2346      C2347   1.397       .  A
C2346      C2351   1.391       .  A
C2346      F2353   1.358       .  S
C2347      C2348   1.410       .  A
C2348      C2349   1.395       .  A
C2348      F2355   1.358       .  S
C2349      C2350   1.399       .  A
C2349      F2354   1.358       .  S
C2350      C2351   1.411       .  A
C2351      F2352   1.355   1_545  S
C2356      C2357   1.407       .  A
C2356      C2361   1.394       .  A
C2356      F2363   1.358       .  S
C2357      C2358   1.401       .  A
C2358      C2359   1.395       .  A
C2358      F2365   1.358       .  S
C2359      C2360   1.407       .  A
C2359      F2364   1.355       .  S
C2360      C2361   1.392       .  A
C2361      F2362   1.353       .  S
C2366      C2367   1.407       .  A
C2366      C2371   1.413       .  A
C2366      F2373   1.355       .  S
C2367      C2368   1.412       .  A
C2368      C2369   1.376       .  A
C2368      F2375   1.353       .  S
C2369      C2370   1.397       .  A
C2369      F2374   1.359       .  S
C2370      C2371   1.409       .  A
C2371      F2372   1.356       .  S
C2376      C2377   1.409       .  A
C2376      C2381   1.399       .  A
C2376      F2383   1.356       .  S
C2377      C2378   1.396       .  A
C2378      C2379   1.399       .  A
C2378      F2385   1.344       .  S
C2379      C2380   1.407       .  A
C2379      F2384   1.358       .  S
C2380      C2381   1.401       .  A
C2381      F2382   1.357       .  S
C2386      C2387   1.413       .  A
C2386      C2391   1.392       .  A
C2386      F2393   1.357   1_545  S
C2387      C2388   1.400       .  A
C2388      C2389   1.403       .  A
C2388      F2395   1.355       .  S
C2389      C2390   1.406       .  A
C2389      F2394   1.355       .  S
C2390      C2391   1.397       .  A
C2391      F2392   1.358       .  S
C2396      C2397   1.405       .  A
C2396      C2401   1.411       .  A
C2396      F2403   1.356       .  S
C2397      C2398   1.409       .  A
C2398      C2399   1.383       .  A
C2398      F2405   1.358       .  S
C2399      C2400   1.401       .  A
C2399      F2404   1.359       .  S
C2400      C2401   1.408       .  A
C2401      F2402   1.356       .  S
C2406      C2407   1.409       .  A
C2406      C2411   1.402       .  A
C2406      F2413   1.358       .  S
C2407      C2408   1.403       .  A
C2408      C2409   1.395       .  A
C2408      F2415   1.358       .  S
C2409      C2410   1.410       .  A
C2409      F2414   1.358       .  S
C2410      C2411   1.402       .  A
C2411      F2412   1.356       .  S
C2416      C2417   1.399       .  A
C2416      C2421   1.395       .  A
C2416      F2423   1.358       .  S
C2417      C2418   1.407       .  A
C2418      C2419   1.396       .  A
C2418      F2425   1.358       .  S
C2419      C2420   1.400       .  A
C2419      F2424   1.354       .  S
C2420      C2421   1.408       .  A
C2421      F2422   1.358       .  S
C2426      C2427   1.406       .  A
C2426      C2431   1.380       .  A
C2426      F2433   1.360       .  S
C2427      C2428   1.408       .  A
C2428      C2429   1.407       .  A
C2428      F2435   1.356       .  S
C2429      C2430   1.404       .  A
C2429      F2434   1.356       .  S
C2430      C2431   1.405       .  A
C2431      F2432   1.360       .  S
C2436      C2437   1.412       .  A
C2436      C2441   1.414       .  A
C2436      F2443   1.356       .  S
C2437      C2438   1.399       .  A
C2438      C2439   1.378       .  A
C2438      F2445   1.360       .  S
C2439      C2440   1.408       .  A
C2439      F2444   1.355       .  S
C2440      C2441   1.408       .  A
C2441      F2442   1.357       .  S
C2446      N2464   1.353       .  A
C2446      C2483   1.464       .  S
C2446      C2631   1.485       .  S
N2447      N2464   1.325       .  A
N2447      N2469   1.319       .  A
C2448      N2473   1.349       .  A
C2448      C2486   1.474       .  S
C2448      H2493   1.081       .  S
H2449      C2490   1.081       .  S
C2450      N2474   1.319       .  A
C2450      C2454   1.449       .  S
C2450      H2479   1.080       .  S
Co2451     N2491   2.091       .  S
Co2451     N2467   2.078       .  S
N2452      C2490   1.356       .  A
N2452      N2459   1.321       .  A
N2452     Co2453   2.112       .  S
Co2453     N2456   2.131       .  S
Co2453    Cl2495   2.475       .  S
C2454      N2492   1.364       .  A
C2454      C2622   1.491       .  S
N2455      N2462   1.318       .  A
N2455      N2485   1.334       .  A
N2455     Co2488   2.102       .  S
N2456      N2474   1.320       .  A
N2456      N2492   1.340       .  A
N2457      C2486   1.351       .  A
N2457      N2467   1.315       .  A
H2458      C2483   1.082       .  S
N2459      N2480   1.321       .  A
N2460      N2478   1.321       .  A
N2460      N2465   1.335       .  A
C2461      N2465   1.358       .  A
C2461      C2489   1.466       .  S
C2461      C2653   1.492       .  S
N2462      C2477   1.334       .  A
C2463      N2491   1.347       .  A
C2463      C2466   1.468       .  S
C2463      H2497   1.082       .  S
C2466      N2487   1.351       .  A
C2466      C2640   1.480       .  S
N2467      N2473   1.317       .  A
N2468      C2494   1.335       .  A
N2468      N2470   1.315       .  A
N2468     Co2484   2.071       .  S
N2469      C2483   1.346       .  A
N2470      N2498   1.336       .  A
H2471      C2494   1.082       .  S
H2472      C2489   1.075       .  S
N2474     Co2488   2.051       .  S
N2475      N2487   1.321       .  A
N2475      N2491   1.315       .  A
N2475     Co2484   2.075       .  S
C2476      N2480   1.351       .  A
C2476      C2490   1.475       .  S
C2476      C2508   1.499       .  S
C2477      C2496   1.464       .  S
C2477      H2481   1.081       .  S
N2478      C2489   1.323       .  A
C2482      N2498   1.368       .  A
C2482      C2494   1.462       .  S
C2482      C2519   1.494       .  S
N2485      C2496   1.357       .  A
C2486      C2530   1.475       .  S
Co2488    Cl2495   2.471       .  S
C2496      C2499   1.493       .  S
C2499      C2500   1.426       .  A
C2499      C2504   1.410       .  A
C2500      H2505   1.081       .  S
C2500      C2501   1.426       .  A
C2501      C2599   1.497       .  S
C2501      C2502   1.409       .  A
C2502      H2506   1.086       .  S
C2502      C2503   1.393       .  A
C2503      C2929   1.481       .  S
C2503      C2504   1.391       .  A
C2504      H2507   1.082       .  S
C2508      C2509   1.414       .  A
C2508      C2513   1.426       .  A
C2509      H2514   1.084       .  S
C2509      C2510   1.396       .  A
C2510      C2919   1.478       .  S
C2510      C2511   1.389       .  A
C2511      H2515   1.085       .  S
C2511      C2512   1.408       .  A
C2512      C2609   1.496       .  S
C2512      C2513   1.423       .  A
C2513      H2516   1.082       .  S
C2517      C2619   1.493       .  S
C2517      C2518   1.423       .  A
C2517      C2522   1.402       .  A
C2518      H2523   1.077       .  S
C2518      C2519   1.425       .  A
C2519      C2520   1.400       .  A
C2520      H2524   1.086       .  S
C2520      C2521   1.393       .  A
C2521      C2906   1.465       .  S
C2521      C2522   1.394       .  A
C2522      H2525   1.084       .  S
C2526      C2605   1.487       .  S
C2526      C2527   1.414       .  A
C2526      C2531   1.416       .  A
C2527      H2532   1.083       .  S
C2527      C2528   1.399       .  A
C2528      C2896   1.476       .  S
C2528      C2529   1.384       .  A
C2529      H2533   1.086       .  S
C2529      C2530   1.401       .  A
C2530      C2531   1.412       .  A
C2531      H2534   1.083       .  S
N2535      C2540   1.351   1_455  A
N2535      H2567   1.031   1_556  S
N2536      C2544   1.349       .  A
N2537      C2542   1.358   1_455  A
N2537      H2568   1.031       .  S
N2538      C2546   1.348       .  A
C2539      C2547   1.381       .  A
C2539      C2555   1.390       .  A
C2540      C2556   1.412       .  A
C2540      C2548   1.385       .  A
C2541      C2549   1.388       .  A
C2541      C2558   1.424       .  A
C2542      C2557   1.425       .  A
C2542      C2550   1.386       .  A
C2543      C2555   1.396   1_554  A
C2543      C2551   1.375       .  A
C2544      C2558   1.419       .  A
C2544      C2552   1.395       .  A
C2545      C2553   1.379       .  A
C2545      C2556   1.404   1_554  A
C2546      C2554   1.393       .  A
C2546      C2557   1.419       .  A
C2547      H2559   1.078       .  S
C2548      H2560   1.079       .  S
C2549      H2561   1.082       .  S
C2550      H2562   1.083       .  S
C2551      H2563   1.083       .  S
C2552      H2564   1.078       .  S
C2553      H2565   1.083       .  S
C2554      H2566   1.082       .  S
C2555      C2909   1.474       .  S
C2556      C2899   1.488       .  S
C2557      C2916   1.489       .  S
C2558      C2926   1.485       .  S
C2569      N2587   1.350       .  A
C2569      C2606   1.484       .  S
C2569      C2710   1.501       .  S
N2570      N2587   1.320       .  A
N2570      N2592   1.317       .  A
C2571      N2596   1.362       .  A
C2571      C2609   1.478       .  S
C2571      H2616   1.081       .  S
H2572      C2613   1.081       .  S
C2573      N2597   1.332       .  A
C2573      C2577   1.469       .  S
C2573      H2602   1.082       .  S
Co2574     N2614   2.080   1_455  S
Co2574     N2590   2.075   1_455  S
Co2574    Cl2618   2.456       .  S
N2575      C2613   1.361       .  A
N2575      N2582   1.319       .  A
Co2576     N2596   2.123   1_455  S
Co2576     N2583   2.117   1_455  S
Co2576    Cl2618   2.486       .  S
C2577      N2615   1.356       .  A
C2577      C2692   1.475       .  S
N2578      N2585   1.316       .  A
N2578      N2608   1.331       .  A
N2579      N2597   1.318       .  A
N2579      N2615   1.330       .  A
N2580      C2609   1.346       .  A
N2580      N2590   1.314       .  A
H2581      C2606   1.075       .  S
N2582      N2603   1.311       .  A
N2583      N2601   1.323       .  A
N2583      N2588   1.338       .  A
C2584      N2588   1.360       .  A
C2584      C2612   1.458       .  S
C2584      C2721   1.496       .  S
N2585      C2600   1.343       .  A
C2586      N2614   1.345       .  A
C2586      C2589   1.461       .  S
C2586      H2620   1.082       .  S
C2589      N2610   1.354       .  A
C2589      C2705   1.480       .  S
N2590      N2596   1.320       .  A
N2591      C2617   1.335       .  A
N2591      N2593   1.317       .  A
N2591     Co2607   2.072   1_655  S
N2592      C2606   1.357       .  A
N2593      N2621   1.333       .  A
N2593     Co2611   2.109   1_655  S
H2594      C2617   1.082       .  S
H2595      C2612   1.082       .  S
N2598      N2610   1.323       .  A
N2598      N2614   1.319       .  A
N2598     Co2607   2.099   1_655  S
C2599      N2603   1.348       .  A
C2599      C2613   1.480       .  S
C2600      C2619   1.472       .  S
C2600      H2604   1.082       .  S
N2601      C2612   1.328       .  A
N2601     Co2611   2.086   1_655  S
C2605      N2621   1.359       .  A
C2605      C2617   1.458       .  S
Co2607    Cl2618   2.429       .  S
N2608      C2619   1.358       .  A
Co2611    Cl2618   2.441       .  S
C2622      C2623   1.412       .  A
C2622      C2627   1.418       .  A
C2623      H2628   1.085       .  S
C2623      C2624   1.393       .  A
C2624      C2886   1.485       .  S
C2624      C2625   1.392       .  A
C2625      H2629   1.084       .  S
C2625      C2626   1.412       .  A
C2626      C2792   1.484       .  S
C2626      C2627   1.421       .  A
C2627      H2630   1.083       .  S
C2631      C2632   1.411       .  A
C2631      C2636   1.417       .  A
C2632      H2637   1.084       .  S
C2632      C2633   1.400       .  A
C2633      C2879   1.471       .  S
C2633      C2634   1.386       .  A
C2634      H2638   1.086       .  S
C2634      C2635   1.398       .  A
C2635      C2802   1.475       .  S
C2635      C2636   1.411       .  A
C2636      H2639   1.083       .  S
C2640      C2641   1.408       .  A
C2640      C2645   1.414       .  A
C2641      H2646   1.084       .  S
C2641      C2642   1.395       .  A
C2642      C2869   1.480       .  S
C2642      C2643   1.392       .  A
C2643      H2647   1.085       .  S
C2643      C2644   1.407       .  A
C2644      C2798   1.482       .  S
C2644      C2645   1.412       .  A
C2645      H2648   1.083       .  S
C2649      C2812   1.488       .  S
C2649      C2650   1.411       .  A
C2649      C2654   1.427       .  A
C2650      H2655   1.083       .  S
C2650      C2651   1.388       .  A
C2651      C2856   1.488       .  S
C2651      C2652   1.390       .  A
C2652      H2656   1.085       .  S
C2652      C2653   1.408       .  A
C2653      C2654   1.425       .  A
C2654      H2657   1.083       .  S
N2658      C2663   1.340       .  A
N2658      H2690   1.037   1_545  S
N2659      C3644   1.356       .  A
N2659      C2667   1.345       .  A
N2660      C2665   1.365       .  A
N2660      H2691   1.036       .  S
N2661      C3646   1.350       .  A
N2661      C2669   1.343       .  A
C2662      C2670   1.383       .  A
C2662      C2678   1.398       .  A
C2663      C2679   1.391       .  A
C2663      C2671   1.375       .  A
C2664      C2672   1.387       .  A
C2664      C2681   1.427       .  A
C2665      C2680   1.432       .  A
C2665      C2673   1.386       .  A
C2666      N3637   1.354       .  A
C2666      C2678   1.403   1_565  A
C2666      C2674   1.376       .  A
C2667      C2681   1.424       .  A
C2667      C2675   1.394       .  A
C2668      N3639   1.353       .  A
C2668      C2676   1.375       .  A
C2668      C2679   1.397   1_565  A
C2669      C2677   1.395       .  A
C2669      C2680   1.415       .  A
C2670      H2682   1.077       .  S
C2671      H2683   1.070       .  S
C2672      H2684   1.081       .  S
C2673      H2685   1.083       .  S
C2674      H2686   1.083       .  S
C2674      C3653   1.364       .  A
C2675      H2687   1.082       .  S
C2675      C3652   1.361       .  A
C2676      H2688   1.083       .  S
C2676      C3655   1.368       .  A
C2677      H2689   1.082       .  S
C2677      C3654   1.371       .  A
C2678      C2866   1.493       .  S
C2679      C2876   1.486       .  S
C2680      C2889   1.492       .  S
C2681      C2859   1.490       .  S
C2692      C2693   1.413       .  A
C2692      C2697   1.396       .  A
C2693      H2698   1.083       .  S
C2693      C2694   1.417       .  A
C2694      C2762   1.479       .  S
C2694      C2695   1.404       .  A
C2695      H2699   1.084       .  S
C2695      C2696   1.395       .  A
C2696      C2846   1.462       .  S
C2696      C2697   1.385       .  A
C2697      H2700   1.087       .  S
C2701      C2777   1.479       .  S
C2701      C2702   1.400       .  A
C2701      C2706   1.415       .  A
C2702      H2707   1.087       .  S
C2702      C2703   1.386       .  A
C2703      C2836   1.463       .  S
C2703      C2704   1.394       .  A
C2704      H2708   1.084       .  S
C2704      C2705   1.404       .  A
C2705      C2706   1.417       .  A
C2706      H2709   1.083       .  S
C2710      C2711   1.406       .  A
C2710      C2715   1.426       .  A
C2711      H2716   1.085       .  S
C2711      C2712   1.391       .  A
C2712      C2829   1.475       .  S
C2712      C2713   1.393       .  A
C2713      H2717   1.085       .  S
C2713      C2714   1.408       .  A
C2714      C2782   1.500       .  S
C2714      C2715   1.428       .  A
C2715      H2718   1.078       .  S
C2719      C2770   1.501       .  S
C2719      C2720   1.425       .  A
C2719      C2724   1.416       .  A
C2720      H2725   1.083       .  S
C2720      C2721   1.425       .  A
C2721      C2722   1.410       .  A
C2722      H2726   1.084       .  S
C2722      C2723   1.390       .  A
C2723      C2816   1.486       .  S
C2723      C2724   1.392       .  A
C2724      H2727   1.083       .  S
N2728      C2733   1.359       .  A
N2728      C3710   1.352       .  A
N2728      H2760   1.041       .  S
N2729      C2736   1.344       .  A
N2730      C2735   1.357       .  A
N2730      C3712   1.344       .  A
N2730      H2761   1.041       .  S
N2731      C2738   1.346       .  A
C2732      N3706   1.351   1_545  A
C2732      C2740   1.384   1_545  A
C2732      C2748   1.407       .  A
C2733      C2749   1.416       .  A
C2733      C2741   1.387       .  A
C2734      N3708   1.344   1_545  A
C2734      C2742   1.389       .  A
C2734      C2751   1.408       .  A
C2735      C2750   1.415       .  A
C2735      C2743   1.384       .  A
C2736      C2748   1.415       .  A
C2736      C2744   1.394       .  A
C2737      C2751   1.402       .  A
C2737      C2745   1.379       .  A
C2738      C2746   1.388       .  A
C2738      C2749   1.416       .  A
C2739      C2747   1.385       .  A
C2739      C2750   1.407       .  A
C2740      H2752   1.083   1_565  S
C2740      C3719   1.375       .  A
C2741      H2753   1.082       .  S
C2741      C3718   1.374       .  A
C2742      H2754   1.081       .  S
C2742      C3721   1.374   1_545  A
C2743      H2755   1.082       .  S
C2743      C3720   1.375       .  A
C2744      H2756   1.080       .  S
C2745      H2757   1.082       .  S
C2746      H2758   1.083       .  S
C2747      H2759   1.083       .  S
C2748      C2839   1.475       .  S
C2749      C2819   1.490       .  S
C2750      C2849   1.475       .  S
C2751      C2826   1.490       .  S
C2762      N2780   1.355       .  A
C2762      C2799   1.461       .  S
N2763      N2780   1.323       .  A
N2763      N2785   1.316       .  A
N2763     Co3778   2.097       .  S
C2764      N2789   1.351       .  A
C2764      C2802   1.474       .  S
C2764      H2809   1.082       .  S
H2765      C2806   1.081       .  S
C2766      N2790   1.328       .  A
C2766      C2770   1.455       .  S
C2766      H2795   1.082       .  S
Co2767     N3763   2.084   1_545  S
Co2767     N3753   2.093   1_545  S
Co2767     N2807   2.122       .  S
Co2767     N2783   2.075       .  S
Co2767    Cl2811   2.437       .  S
N2768      C2806   1.352       .  A
N2768      N2775   1.321       .  A
N2768     Co3747   2.091       .  S
Co2769     N3746   2.099   1_545  S
Co2769     N3750   2.120   1_545  S
Co2769     N2789   2.111       .  S
Co2769     N2776   2.111       .  S
Co2769    Cl2811   2.490       .  S
C2770      N2808   1.366       .  A
N2771      N2778   1.320       .  A
N2771      N2801   1.333       .  A
N2771     Co2804   2.094       .  S
N2772      N2790   1.318       .  A
N2772      N2808   1.340       .  A
N2772     Co3747   2.125       .  S
N2773      C2802   1.349       .  A
N2773      N2783   1.315       .  A
H2774      C2799   1.082       .  S
N2775      N2796   1.317       .  A
N2775     Co3745   2.089       .  S
N2776      N2794   1.318       .  A
N2776      N2781   1.330       .  A
C2777      N2781   1.360       .  A
C2777      C2805   1.471       .  S
N2778      C2793   1.332       .  A
N2778     Co3778   2.093       .  S
C2779      N2807   1.357       .  A
C2779      C2782   1.482       .  S
C2779      H2813   1.082       .  S
C2782      N2803   1.352       .  A
N2783      N2789   1.320       .  A
N2784      C2810   1.329       .  A
N2784      N2786   1.313       .  A
N2784     Co2800   2.062       .  S
N2785      C2799   1.343       .  A
N2785     Co3745   2.073       .  S
N2786      N2814   1.331       .  A
N2786     Co3782   2.100       .  S
H2787      C2810   1.082       .  S
H2788      C2805   1.082       .  S
N2790     Co2804   2.076       .  S
N2791      N2803   1.322       .  A
N2791      N2807   1.315       .  A
N2791     Co2800   2.082       .  S
C2792      N2796   1.347       .  A
C2792      C2806   1.469       .  S
C2793      C2812   1.464       .  S
C2793      H2797   1.082       .  S
N2794      C2805   1.332       .  A
N2794     Co3782   2.083       .  S
C2798      N2814   1.361       .  A
C2798      C2810   1.461       .  S
Co2800     N3741   2.104   1_545  S
Co2800     N3756   2.101   1_545  S
Co2800    Cl2811   2.432       .  S
N2801      C2812   1.354       .  A
Co2804     N3764   2.091       .  S
Co2804     N3772   2.088       .  S
Co2804    Cl3789   2.448       .  S
Cl2811    Co3782   2.447       .  S
C2815      C2816   1.407       .  A
C2815      C2820   1.382       .  A
C2815      F2822   1.358       .  S
C2816      C2817   1.409       .  A
C2817      C2818   1.413       .  A
C2817      F2824   1.356       .  S
C2818      C2819   1.410       .  A
C2818      F2823   1.357       .  S
C2819      C2820   1.402       .  A
C2820      F2821   1.358       .  S
C2825      C2826   1.411       .  A
C2825      C2830   1.399       .  A
C2825      F2832   1.354       .  S
C2826      C2827   1.404       .  A
C2827      C2828   1.398       .  A
C2827      F2834   1.354       .  S
C2828      C2829   1.406       .  A
C2828      F2833   1.358       .  S
C2829      C2830   1.399       .  A
C2830      F2831   1.357       .  S
C2835      C2836   1.395       .  A
C2835      C2840   1.391       .  A
C2835      F2842   1.358       .  S
C2836      C2837   1.409       .  A
C2837      C2838   1.395       .  A
C2837      F2844   1.357       .  S
C2838      C2839   1.398       .  A
C2838      F2843   1.357       .  S
C2839      C2840   1.412       .  A
C2840      F2841   1.355       .  S
C2845      C2846   1.408       .  A
C2845      C2850   1.396       .  A
C2845      F2852   1.359       .  S
C2846      C2847   1.399       .  A
C2847      C2848   1.391       .  A
C2847      F2854   1.358       .  S
C2848      C2849   1.406       .  A
C2848      F2853   1.356       .  S
C2849      C2850   1.393       .  A
C2850      F2851   1.353       .  S
C2855      C2856   1.402       .  A
C2855      C2860   1.411       .  A
C2855      F2862   1.352       .  S
C2856      C2857   1.413       .  A
C2857      C2858   1.379       .  A
C2857      F2864   1.353       .  S
C2858      C2859   1.400       .  A
C2858      F2863   1.360       .  S
C2859      C2860   1.408       .  A
C2860      F2861   1.355       .  S
C2865      C2866   1.412       .  A
C2865      C2870   1.398       .  A
C2865      F2872   1.357   1_545  S
C2866      C2867   1.398       .  A
C2867      C2868   1.400       .  A
C2867      F2874   1.348       .  S
C2868      C2869   1.407       .  A
C2868      F2873   1.358       .  S
C2869      C2870   1.403       .  A
C2870      F2871   1.358       .  S
C2875      C2876   1.411       .  A
C2875      C2880   1.393       .  A
C2875      F2882   1.356   1_545  S
C2876      C2877   1.399       .  A
C2877      C2878   1.403       .  A
C2877      F2884   1.356       .  S
C2878      C2879   1.407       .  A
C2878      F2883   1.357       .  S
C2879      C2880   1.398       .  A
C2880      F2881   1.358       .  S
C2885      C2886   1.407       .  A
C2885      C2890   1.413       .  A
C2885      F2892   1.356       .  S
C2886      C2887   1.408       .  A
C2887      C2888   1.384       .  A
C2887      F2894   1.358       .  S
C2888      C2889   1.402       .  A
C2888      F2893   1.360       .  S
C2889      C2890   1.409       .  A
C2890      F2891   1.357       .  S
C2895      C2896   1.409       .  A
C2895      C2900   1.404       .  A
C2895      F2902   1.357       .  S
C2896      C2897   1.400       .  A
C2897      C2898   1.394       .  A
C2897      F2904   1.358       .  S
C2898      C2899   1.411       .  A
C2898      F2903   1.357   1_556  S
C2899      C2900   1.404       .  A
C2900      F2901   1.356       .  S
C2905      C2906   1.399       .  A
C2905      C2910   1.396       .  A
C2905      F2912   1.358       .  S
C2906      C2907   1.407       .  A
C2907      C2908   1.393       .  A
C2907      F2914   1.358       .  S
C2908      C2909   1.397       .  A
C2908      F2913   1.353       .  S
C2909      C2910   1.409       .  A
C2910      F2911   1.358   1_556  S
C2915      C2916   1.403       .  A
C2915      C2920   1.382       .  A
C2915      F2922   1.359       .  S
C2916      C2917   1.410       .  A
C2917      C2918   1.411       .  A
C2917      F2924   1.357       .  S
C2918      C2919   1.408       .  A
C2918      F2923   1.357       .  S
C2919      C2920   1.404       .  A
C2920      F2921   1.359       .  S
C2925      C2926   1.411       .  A
C2925      C2930   1.411       .  A
C2925      F2932   1.357       .  S
C2926      C2927   1.401       .  A
C2927      C2928   1.378       .  A
C2927      F2934   1.360       .  S
C2928      C2929   1.407       .  A
C2928      F2933   1.356       .  S
C2929      C2930   1.405       .  A
C2930      F2931   1.356       .  S
C2935      N2953   1.351       .  A
C2935      C2972   1.465       .  S
C2935      C3120   1.482       .  S
N2936      N2953   1.325       .  A
N2936      N2958   1.321       .  A
N2936     Co3462   2.094   1_554  S
C2937      N2962   1.349       .  A
C2937      C2975   1.472       .  S
C2937      H2982   1.081       .  S
H2938      C2979   1.081       .  S
C2939      N2963   1.319       .  A
C2939      C2943   1.451       .  S
C2939      H2968   1.079       .  S
Co2940     N3447   2.092       .  S
Co2940     N3437   2.103       .  S
Co2940     N2980   2.089       .  S
Co2940     N2956   2.083       .  S
Co2940    Cl3473   2.443       .  S
N2941      C2979   1.354       .  A
N2941      N2948   1.320       .  A
N2941     Co2942   2.100   1_554  S
Co2942     N2945   2.123   1_556  S
Co2942     N3451   2.105       .  S
Co2942     N3438   2.127       .  S
Co2942    Cl2984   2.479       .  S
C2943      N2981   1.360       .  A
C2943      C3111   1.486       .  S
N2944      N2951   1.317       .  A
N2944      N2974   1.334       .  A
N2944     Co2977   2.107   1_554  S
N2945      N2963   1.321       .  A
N2945      N2981   1.337       .  A
N2946      C2975   1.353       .  A
N2946      N2956   1.318       .  A
H2947      C2972   1.082       .  S
N2948      N2969   1.324       .  A
N2948     Co3429   2.115   1_554  S
N2949      N2967   1.320       .  A
N2949      N2954   1.337       .  A
N2949     Co3431   2.119       .  S
C2950      N2954   1.362       .  A
C2950      C2978   1.466       .  S
C2950      C3142   1.498       .  S
N2951      C2966   1.335       .  A
N2951     Co3462   2.085   1_554  S
C2952      N2980   1.345       .  A
C2952      C2955   1.467       .  S
C2952      H2986   1.082       .  S
C2955      N2976   1.347       .  A
C2955      C3129   1.471       .  S
N2956      N2962   1.317       .  A
N2957      C2983   1.335       .  A
N2957      N2959   1.314       .  A
N2957     Co2973   2.077       .  S
N2958      C2972   1.344       .  A
N2958     Co3429   2.092   1_554  S
N2959      N2987   1.333       .  A
N2959     Co3466   2.125       .  S
H2960      C2983   1.082       .  S
H2961      C2978   1.075       .  S
N2962     Co3431   2.097       .  S
N2963     Co2977   2.052   1_554  S
N2964      N2976   1.319       .  A
N2964      N2980   1.315       .  A
N2964     Co2973   2.063       .  S
C2965      N2969   1.357       .  A
C2965      C2979   1.468       .  S
C2965      C2997   1.502       .  S
C2966      C2985   1.463       .  S
C2966      H2970   1.082       .  S
N2967      C2978   1.323       .  A
N2967     Co3466   2.078       .  S
C2971      N2987   1.367       .  A
C2971      C2983   1.468       .  S
C2971      C3008   1.491       .  S
Co2973     N3425   2.089       .  S
Co2973     N3440   2.092       .  S
Co2973    Cl3473   2.428       .  S
N2974      C2985   1.359       .  A
C2975      C3019   1.475       .  S
Co2977     N3448   2.124       .  S
Co2977     N3456   2.068       .  S
Co2977    Cl2984   2.467       .  S
Cl2984    Co3429   2.435       .  S
Cl2984    Co3462   2.436       .  S
C2985      C2988   1.494       .  S
C2988      C2989   1.424       .  A
C2988      C2993   1.412       .  A
C2989      H2994   1.081       .  S
C2989      C2990   1.426       .  A
C2990      C3088   1.493       .  S
C2990      C2991   1.406       .  A
C2991      H2995   1.086       .  S
C2991      C2992   1.392       .  A
C2992      C3418   1.482       .  S
C2992      C2993   1.395       .  A
C2993      H2996   1.082       .  S
C2997      C2998   1.409       .  A
C2997      C3002   1.434       .  A
C2998      H3003   1.084       .  S
C2998      C2999   1.392       .  A
C2999      C3408   1.474       .  S
C2999      C3000   1.390       .  A
C3000      H3004   1.085       .  S
C3000      C3001   1.408       .  A
C3001      C3098   1.506       .  S
C3001      C3002   1.429       .  A
C3002      H3005   1.082       .  S
C3006      C3108   1.491       .  S
C3006      C3007   1.422       .  A
C3006      C3011   1.403       .  A
C3007      H3012   1.078       .  S
C3007      C3008   1.424       .  A
C3008      C3009   1.399       .  A
C3009      H3013   1.086       .  S
C3009      C3010   1.387       .  A
C3010      C3395   1.464       .  S
C3010      C3011   1.395       .  A
C3011      H3014   1.084       .  S
C3015      C3094   1.489       .  S
C3015      C3016   1.413       .  A
C3015      C3020   1.417       .  A
C3016      H3021   1.083       .  S
C3016      C3017   1.400       .  A
C3017      C3385   1.475       .  S
C3017      C3018   1.387       .  A
C3018      H3022   1.086       .  S
C3018      C3019   1.397       .  A
C3019      C3020   1.414       .  A
C3020      H3023   1.083       .  S
N3024      C3029   1.341   1_455  A
N3024      H3056   1.030       .  S
N3025      C3521   1.354       .  A
N3025      C3033   1.346       .  A
N3026      C3031   1.360   1_455  A
N3026      H3057   1.037       .  S
N3027      C3523   1.351       .  A
N3027      C3035   1.347       .  A
C3028      C3036   1.386       .  A
C3028      C3044   1.411       .  A
C3029      C3045   1.392       .  A
C3029      C3037   1.376       .  A
C3030      C3038   1.388       .  A
C3030      C3047   1.428       .  A
C3031      C3046   1.426       .  A
C3031      C3039   1.387       .  A
C3032      N3514   1.351       .  A
C3032      C3044   1.400       .  A
C3032      C3040   1.378       .  A
C3033      C3047   1.426       .  A
C3033      C3041   1.397       .  A
C3034      N3516   1.355       .  A
C3034      C3042   1.376       .  A
C3034      C3045   1.401       .  A
C3035      C3043   1.392       .  A
C3035      C3046   1.415       .  A
C3036      H3048   1.081       .  S
C3037      H3049   1.070       .  S
C3038      H3050   1.083       .  S
C3039      H3051   1.083       .  S
C3040      H3052   1.083       .  S
C3040      C3530   1.364       .  A
C3041      H3053   1.080       .  S
C3041      C3529   1.363       .  A
C3042      H3054   1.083       .  S
C3042      C3532   1.367       .  A
C3043      H3055   1.083       .  S
C3043      C3531   1.374       .  A
C3044      C3398   1.477       .  S
C3045      C3388   1.483       .  S
C3046      C3405   1.488       .  S
C3047      C3415   1.486       .  S
C3058      N3076   1.344       .  A
C3058      C3095   1.483       .  S
C3058      C3199   1.494       .  S
N3059      N3076   1.316       .  A
N3059      N3081   1.319       .  A
C3060      N3085   1.363       .  A
C3060      C3098   1.482       .  S
C3060      H3105   1.081       .  S
H3061      C3102   1.081       .  S
C3062      N3086   1.330       .  A
C3062      C3066   1.464       .  S
C3062      H3091   1.082       .  S
Co3063     N3103   2.075   1_455  S
Co3063     N3079   2.085   1_455  S
Co3063    Cl3107   2.455       .  S
N3064      C3102   1.358       .  A
N3064      N3071   1.321       .  A
Co3065     N3085   2.129   1_455  S
Co3065     N3072   2.121   1_455  S
Co3065    Cl3107   2.479       .  S
C3066      N3104   1.359       .  A
C3066      C3181   1.479       .  S
N3067      N3074   1.314       .  A
N3067      N3097   1.332       .  A
N3068      N3086   1.318       .  A
N3068      N3104   1.331       .  A
N3069      C3098   1.350       .  A
N3069      N3079   1.317       .  A
H3070      C3095   1.078       .  S
N3071      N3092   1.314       .  A
N3072      N3090   1.323       .  A
N3072      N3077   1.338       .  A
C3073      N3077   1.361       .  A
C3073      C3101   1.458       .  S
C3073      C3210   1.497       .  S
N3074      C3089   1.342       .  A
C3075      N3103   1.342       .  A
C3075      C3078   1.457       .  S
C3075      H3109   1.082       .  S
C3078      N3099   1.354       .  A
C3078      C3194   1.474       .  S
N3079      N3085   1.319       .  A
N3080      C3106   1.338       .  A
N3080      N3082   1.319       .  A
N3080     Co3096   2.083   1_655  S
N3081      C3095   1.358       .  A
N3082      N3110   1.332       .  A
N3082     Co3100   2.113   1_655  S
H3083      C3106   1.082       .  S
H3084      C3101   1.082       .  S
N3087      N3099   1.324       .  A
N3087      N3103   1.320       .  A
N3087     Co3096   2.102   1_655  S
C3088      N3092   1.350       .  A
C3088      C3102   1.474       .  S
C3089      C3108   1.468       .  S
C3089      H3093   1.082       .  S
N3090      C3101   1.329       .  A
N3090     Co3100   2.084   1_655  S
C3094      N3110   1.358       .  A
C3094      C3106   1.463       .  S
Co3096    Cl3107   2.434       .  S
N3097      C3108   1.358       .  A
Co3100    Cl3107   2.444       .  S
C3111      C3112   1.410       .  A
C3111      C3116   1.416       .  A
C3112      H3117   1.085       .  S
C3112      C3113   1.392       .  A
C3113      C3375   1.482       .  S
C3113      C3114   1.390       .  A
C3114      H3118   1.084       .  S
C3114      C3115   1.411       .  A
C3115      C3281   1.480       .  S
C3115      C3116   1.419       .  A
C3116      H3119   1.083       .  S
C3120      C3121   1.415       .  A
C3120      C3125   1.414       .  A
C3121      H3126   1.084       .  S
C3121      C3122   1.404       .  A
C3122      C3368   1.474       .  S
C3122      C3123   1.384       .  A
C3123      H3127   1.086       .  S
C3123      C3124   1.398       .  A
C3124      C3291   1.470       .  S
C3124      C3125   1.405       .  A
C3125      H3128   1.083       .  S
C3129      C3130   1.411       .  A
C3129      C3134   1.407       .  A
C3130      H3135   1.084       .  S
C3130      C3131   1.397       .  A
C3131      C3358   1.480       .  S
C3131      C3132   1.392       .  A
C3132      H3136   1.085       .  S
C3132      C3133   1.405       .  A
C3133      C3287   1.473       .  S
C3133      C3134   1.404       .  A
C3134      H3137   1.084       .  S
C3138      C3301   1.495       .  S
C3138      C3139   1.412       .  A
C3138      C3143   1.432       .  A
C3139      H3144   1.083       .  S
C3139      C3140   1.390       .  A
C3140      C3345   1.490       .  S
C3140      C3141   1.391       .  A
C3141      H3145   1.085       .  S
C3141      C3142   1.408       .  A
C3142      C3143   1.431       .  A
C3143      H3146   1.083       .  S
N3147      C3152   1.343   1_556  A
N3147      C3640   1.346       .  A
N3147      H3179   1.040       .  S
N3148      C3156   1.343       .  A
N3149      C3154   1.363   1_556  A
N3149      C3642   1.362       .  A
N3149      H3180   1.035       .  S
N3150      C3158   1.346       .  A
C3151      N3636   1.342       .  A
C3151      C3159   1.380       .  A
C3151      C3167   1.393       .  A
C3152      C3168   1.395       .  A
C3152      C3160   1.380       .  A
C3153      N3638   1.361       .  A
C3153      C3161   1.387       .  A
C3153      C3170   1.428       .  A
C3154      C3169   1.431       .  A
C3154      C3162   1.388       .  A
C3155      C3167   1.402       .  A
C3155      C3163   1.374       .  A
C3156      C3170   1.427       .  A
C3156      C3164   1.398       .  A
C3157      C3165   1.377       .  A
C3157      C3168   1.398       .  A
C3158      C3166   1.396       .  A
C3158      C3169   1.420       .  A
C3159      H3171   1.076       .  S
C3159      C3649   1.376       .  A
C3160      H3172   1.075       .  S
C3160      C3648   1.378   1_554  A
C3161      H3173   1.082       .  S
C3161      C3651   1.373       .  A
C3162      H3174   1.083       .  S
C3162      C3650   1.371   1_554  A
C3163      H3175   1.083       .  S
C3164      H3176   1.082       .  S
C3165      H3177   1.083       .  S
C3166      H3178   1.082       .  S
C3167      C3355   1.498       .  S
C3168      C3365   1.486       .  S
C3169      C3378   1.489       .  S
C3170      C3348   1.486       .  S
C3181      C3182   1.415       .  A
C3181      C3186   1.398       .  A
C3182      H3187   1.083       .  S
C3182      C3183   1.419       .  A
C3183      C3251   1.485       .  S
C3183      C3184   1.408       .  A
C3184      H3188   1.084       .  S
C3184      C3185   1.396       .  A
C3185      C3335   1.466       .  S
C3185      C3186   1.384       .  A
C3186      H3189   1.086       .  S
C3190      C3266   1.477       .  S
C3190      C3191   1.399       .  A
C3190      C3195   1.413       .  A
C3191      H3196   1.087       .  S
C3191      C3192   1.388       .  A
C3192      C3325   1.463       .  S
C3192      C3193   1.396       .  A
C3193      H3197   1.084       .  S
C3193      C3194   1.401       .  A
C3194      C3195   1.412       .  A
C3195      H3198   1.081       .  S
C3199      C3200   1.412       .  A
C3199      C3204   1.418       .  A
C3200      H3205   1.085       .  S
C3200      C3201   1.395       .  A
C3201      C3318   1.484       .  S
C3201      C3202   1.395       .  A
C3202      H3206   1.084       .  S
C3202      C3203   1.411       .  A
C3203      C3271   1.490       .  S
C3203      C3204   1.420       .  A
C3204      H3207   1.082       .  S
C3208      C3259   1.495       .  S
C3208      C3209   1.425       .  A
C3208      C3213   1.412       .  A
C3209      H3214   1.083       .  S
C3209      C3210   1.424       .  A
C3210      C3211   1.411       .  A
C3211      H3215   1.083       .  S
C3211      C3212   1.392       .  A
C3212      C3305   1.484       .  S
C3212      C3213   1.391       .  A
C3213      H3216   1.084       .  S
N3217      C3222   1.362       .  A
N3217      H3249   1.041       .  S
N3218      C3225   1.342       .  A
N3219      C3224   1.356       .  A
N3219      H3250   1.041       .  S
N3220      C3227   1.343       .  A
C3221      C3229   1.383       .  A
C3221      C3237   1.411       .  A
C3222      C3238   1.418       .  A
C3222      C3230   1.385       .  A
C3223      C3231   1.390       .  A
C3223      C3240   1.413       .  A
C3224      C3239   1.419       .  A
C3224      C3232   1.386       .  A
C3225      C3237   1.415       .  A
C3225      C3233   1.397       .  A
C3226      C3240   1.405       .  A
C3226      C3234   1.380       .  A
C3227      C3235   1.389       .  A
C3227      C3238   1.415       .  A
C3228      C3236   1.387       .  A
C3228      C3239   1.407       .  A
C3229      H3241   1.083       .  S
C3230      H3242   1.082       .  S
C3231      H3243   1.083       .  S
C3232      H3244   1.082       .  S
C3233      H3245   1.079       .  S
C3234      H3246   1.082       .  S
C3235      H3247   1.083       .  S
C3236      H3248   1.082       .  S
C3237      C3328   1.478       .  S
C3238      C3308   1.490       .  S
C3239      C3338   1.481       .  S
C3240      C3315   1.498       .  S
C3251      N3269   1.355       .  A
C3251      C3288   1.465       .  S
N3252      N3269   1.324       .  A
N3252      N3274   1.318       .  A
C3253      N3278   1.349       .  A
C3253      C3291   1.472       .  S
C3253      H3298   1.082       .  S
H3254      C3295   1.081       .  S
C3255      N3279   1.331       .  A
C3255      C3259   1.459       .  S
C3255      H3284   1.082       .  S
Co3256     N3296   2.107       .  S
Co3256     N3272   2.066       .  S
Co3256    Cl3300   2.429       .  S
N3257      C3295   1.351       .  A
N3257      N3264   1.321       .  A
Co3258     N3278   2.104       .  S
Co3258     N3265   2.103       .  S
Co3258    Cl3300   2.486       .  S
C3259      N3297   1.361       .  A
N3260      N3267   1.320       .  A
N3260      N3290   1.335       .  A
N3260     Co3293   2.101   1_565  S
N3261      N3279   1.320       .  A
N3261      N3297   1.337       .  A
N3262      C3291   1.347       .  A
N3262      N3272   1.314       .  A
H3263      C3288   1.082       .  S
N3264      N3285   1.316       .  A
N3265      N3283   1.318       .  A
N3265      N3270   1.328       .  A
C3266      N3270   1.358       .  A
C3266      C3294   1.472       .  S
N3267      C3282   1.335       .  A
C3268      N3296   1.353       .  A
C3268      C3271   1.475       .  S
C3268      H3302   1.082       .  S
C3271      N3292   1.350       .  A
N3272      N3278   1.319       .  A
N3273      C3299   1.329       .  A
N3273      N3275   1.315       .  A
N3273     Co3289   2.061       .  S
N3274      C3288   1.346       .  A
N3275      N3303   1.329       .  A
H3276      C3299   1.082       .  S
H3277      C3294   1.080       .  S
N3279     Co3293   2.091   1_565  S
N3280      N3292   1.321       .  A
N3280      N3296   1.315       .  A
N3280     Co3289   2.074       .  S
C3281      N3285   1.346       .  A
C3281      C3295   1.467       .  S
C3282      C3301   1.468       .  S
C3282      H3286   1.082       .  S
N3283      C3294   1.334       .  A
C3287      N3303   1.356       .  A
C3287      C3299   1.460       .  S
Co3289    Cl3300   2.438       .  S
N3290      C3301   1.356       .  A
C3304      C3305   1.406       .  A
C3304      C3309   1.379       .  A
C3304      F3311   1.357       .  S
C3305      C3306   1.409       .  A
C3306      C3307   1.414       .  A
C3306      F3313   1.356       .  S
C3307      C3308   1.409       .  A
C3307      F3312   1.356       .  S
C3308      C3309   1.400       .  A
C3309      F3310   1.355       .  S
C3314      C3315   1.411       .  A
C3314      C3319   1.402       .  A
C3314      F3321   1.353       .  S
C3315      C3316   1.402       .  A
C3316      C3317   1.403       .  A
C3316      F3323   1.356       .  S
C3317      C3318   1.407       .  A
C3317      F3322   1.358       .  S
C3318      C3319   1.402       .  A
C3319      F3320   1.358       .  S
C3324      C3325   1.396       .  A
C3324      C3329   1.393       .  A
C3324      F3331   1.358       .  S
C3325      C3326   1.410       .  A
C3326      C3327   1.391       .  A
C3326      F3333   1.358       .  S
C3327      C3328   1.397       .  A
C3327      F3332   1.358       .  S
C3328      C3329   1.413       .  A
C3329      F3330   1.356       .  S
C3334      C3335   1.407       .  A
C3334      C3339   1.398       .  A
C3334      F3341   1.357       .  S
C3335      C3336   1.400       .  A
C3336      C3337   1.394       .  A
C3336      F3343   1.358       .  S
C3337      C3338   1.406       .  A
C3337      F3342   1.356       .  S
C3338      C3339   1.394       .  A
C3339      F3340   1.354       .  S
C3344      C3345   1.405       .  A
C3344      C3349   1.412       .  A
C3344      F3351   1.353       .  S
C3345      C3346   1.414       .  A
C3346      C3347   1.377       .  A
C3346      F3353   1.352       .  S
C3347      C3348   1.397       .  A
C3347      F3352   1.360       .  S
C3348      C3349   1.408       .  A
C3349      F3350   1.356       .  S
C3354      C3355   1.413       .  A
C3354      C3359   1.402       .  A
C3354      F3361   1.356       .  S
C3355      C3356   1.401       .  A
C3356      C3357   1.399       .  A
C3356      F3363   1.344       .  S
C3357      C3358   1.405       .  A
C3357      F3362   1.358       .  S
C3358      C3359   1.403       .  A
C3359      F3360   1.358       .  S
C3364      C3365   1.409       .  A
C3364      C3369   1.397       .  A
C3364      F3371   1.357       .  S
C3365      C3366   1.398       .  A
C3366      C3367   1.404       .  A
C3366      F3373   1.355       .  S
C3367      C3368   1.406       .  A
C3367      F3372   1.353       .  S
C3368      C3369   1.400       .  A
C3369      F3370   1.358       .  S
C3374      C3375   1.404       .  A
C3374      C3379   1.411       .  A
C3374      F3381   1.355       .  S
C3375      C3376   1.408       .  A
C3376      C3377   1.382       .  A
C3376      F3383   1.358       .  S
C3377      C3378   1.401       .  A
C3377      F3382   1.360       .  S
C3378      C3379   1.408       .  A
C3379      F3380   1.357       .  S
C3384      C3385   1.408       .  A
C3384      C3389   1.400       .  A
C3384      F3391   1.357       .  S
C3385      C3386   1.403       .  A
C3386      C3387   1.396       .  A
C3386      F3393   1.358       .  S
C3387      C3388   1.410       .  A
C3387      F3392   1.359       .  S
C3388      C3389   1.401       .  A
C3389      F3390   1.357       .  S
C3394      C3395   1.399       .  A
C3394      C3399   1.394       .  A
C3394      F3401   1.358       .  S
C3395      C3396   1.406       .  A
C3396      C3397   1.394       .  A
C3396      F3403   1.358       .  S
C3397      C3398   1.399       .  A
C3397      F3402   1.352       .  S
C3398      C3399   1.407       .  A
C3399      F3400   1.358       .  S
C3404      C3405   1.402       .  A
C3404      C3409   1.380       .  A
C3404      F3411   1.357       .  S
C3405      C3406   1.408       .  A
C3406      C3407   1.411       .  A
C3406      F3413   1.356       .  S
C3407      C3408   1.406       .  A
C3407      F3412   1.356       .  S
C3408      C3409   1.403       .  A
C3409      F3410   1.359       .  S
C3414      C3415   1.412       .  A
C3414      C3419   1.412       .  A
C3414      F3421   1.356       .  S
C3415      C3416   1.397       .  A
C3416      C3417   1.376       .  A
C3416      F3423   1.360       .  S
C3417      C3418   1.409       .  A
C3417      F3422   1.355       .  S
C3418      C3419   1.406       .  A
C3419      F3420   1.357       .  S
C3424      N3442   1.349       .  A
C3424      C3461   1.466       .  S
C3424      C3609   1.479       .  S
N3425      N3442   1.322       .  A
N3425      N3447   1.320       .  A
C3426      N3451   1.351       .  A
C3426      C3464   1.474       .  S
C3426      H3471   1.081       .  S
H3427      C3468   1.081       .  S
C3428      N3452   1.322       .  A
C3428      C3432   1.453       .  S
C3428      H3457   1.079       .  S
Co3429     N3469   2.097       .  S
Co3429     N3445   2.075       .  S
N3430      C3468   1.351       .  A
N3430      N3437   1.321       .  A
N3430     Co3431   2.104       .  S
Co3431     N3434   2.118       .  S
Co3431    Cl3473   2.474       .  S
C3432      N3470   1.359       .  A
C3432      C3600   1.488       .  S
N3433      N3440   1.318       .  A
N3433      N3463   1.335       .  A
N3433     Co3466   2.107       .  S
N3434      N3452   1.321       .  A
N3434      N3470   1.337       .  A
N3435      C3464   1.348       .  A
N3435      N3445   1.315       .  A
H3436      C3461   1.082       .  S
N3437      N3458   1.324       .  A
N3438      N3456   1.319       .  A
N3438      N3443   1.338       .  A
C3439      N3443   1.365       .  A
C3439      C3467   1.464       .  S
C3439      C3631   1.499       .  S
N3440      C3455   1.336       .  A
C3441      N3469   1.347       .  A
C3441      C3444   1.468       .  S
C3441      H3475   1.082       .  S
C3444      N3465   1.347       .  A
C3444      C3618   1.474       .  S
N3445      N3451   1.318       .  A
N3446      C3472   1.333       .  A
N3446      N3448   1.314       .  A
N3446     Co3462   2.079       .  S
N3447      C3461   1.347       .  A
N3448      N3476   1.334       .  A
H3449      C3472   1.082       .  S
H3450      C3467   1.074       .  S
N3452     Co3466   2.062       .  S
N3453      N3465   1.320       .  A
N3453      N3469   1.316       .  A
N3453     Co3462   2.059       .  S
C3454      N3458   1.353       .  A
C3454      C3468   1.469       .  S
C3454      C3486   1.495       .  S
C3455      C3474   1.465       .  S
C3455      H3459   1.081       .  S
N3456      C3467   1.319       .  A
C3460      N3476   1.367       .  A
C3460      C3472   1.467       .  S
C3460      C3497   1.492       .  S
N3463      C3474   1.358       .  A
C3464      C3508   1.476       .  S
Co3466    Cl3473   2.467       .  S
C3474      C3477   1.498       .  S
C3477      C3478   1.427       .  A
C3477      C3482   1.412       .  A
C3478      H3483   1.081       .  S
C3478      C3479   1.426       .  A
C3479      C3577   1.501       .  S
C3479      C3480   1.410       .  A
C3480      H3484   1.086       .  S
C3480      C3481   1.394       .  A
C3481      C3907   1.483       .  S
C3481      C3482   1.394       .  A
C3482      H3485   1.081       .  S
C3486      C3487   1.413       .  A
C3486      C3491   1.424       .  A
C3487      H3492   1.084       .  S
C3487      C3488   1.400       .  A
C3488      C3897   1.479       .  S
C3488      C3489   1.391       .  A
C3489      H3493   1.086       .  S
C3489      C3490   1.405       .  A
C3490      C3587   1.492       .  S
C3490      C3491   1.419       .  A
C3491      H3494   1.083       .  S
C3495      C3597   1.493       .  S
C3495      C3496   1.422       .  A
C3495      C3500   1.406       .  A
C3496      H3501   1.079       .  S
C3496      C3497   1.423       .  A
C3497      C3498   1.401       .  A
C3498      H3502   1.086       .  S
C3498      C3499   1.389       .  A
C3499      C3884   1.468       .  S
C3499      C3500   1.395       .  A
C3500      H3503   1.084       .  S
C3504      C3583   1.484       .  S
C3504      C3505   1.415       .  A
C3504      C3509   1.416       .  A
C3505      H3510   1.083       .  S
C3505      C3506   1.395       .  A
C3506      C3874   1.475       .  S
C3506      C3507   1.385       .  A
C3507      H3511   1.086       .  S
C3507      C3508   1.401       .  A
C3508      C3509   1.413       .  A
C3509      H3512   1.083       .  S
N3513      C3518   1.349   1_454  A
N3513      H3545   1.029       .  S
N3514      C3522   1.349       .  A
N3515      C3520   1.357   1_455  A
N3515      H3546   1.018       .  S
N3516      C3524   1.349       .  A
C3517      C3525   1.383       .  A
C3517      C3533   1.399       .  A
C3518      C3534   1.410       .  A
C3518      C3526   1.385   1_655  A
C3519      C3527   1.387       .  A
C3519      C3536   1.422       .  A
C3520      C3535   1.425       .  A
C3520      C3528   1.385       .  A
C3521      C3533   1.403   1_554  A
C3521      C3529   1.376       .  A
C3522      C3536   1.416       .  A
C3522      C3530   1.393       .  A
C3523      C3531   1.380       .  A
C3523      C3534   1.408   1_554  A
C3524      C3532   1.397       .  A
C3524      C3535   1.424       .  A
C3525      H3537   1.079       .  S
C3526      H3538   1.076   1_455  S
C3527      H3539   1.083       .  S
C3528      H3540   1.083       .  S
C3529      H3541   1.083       .  S
C3530      H3542   1.078       .  S
C3531      H3543   1.083       .  S
C3532      H3544   1.080       .  S
C3533      C3887   1.477       .  S
C3534      C3877   1.489       .  S
C3535      C3894   1.488       .  S
C3536      C3904   1.488       .  S
C3547      N3565   1.344       .  A
C3547      C3584   1.484       .  S
C3547      C3688   1.494       .  S
N3548      N3565   1.317       .  A
N3548      N3570   1.317       .  A
C3549      N3574   1.360       .  A
C3549      C3587   1.475       .  S
C3549      H3594   1.081       .  S
H3550      C3591   1.080       .  S
C3551      N3575   1.333       .  A
C3551      C3555   1.470       .  S
C3551      H3580   1.082       .  S
Co3552     N3592   2.083   1_455  S
Co3552     N3568   2.078   1_455  S
Co3552    Cl3596   2.456       .  S
N3553      C3591   1.364       .  A
N3553      N3560   1.320       .  A
Co3554     N3574   2.114   1_455  S
Co3554     N3561   2.121   1_455  S
Co3554    Cl3596   2.484       .  S
C3555      N3593   1.357       .  A
C3555      C3670   1.478       .  S
N3556      N3563   1.317       .  A
N3556      N3586   1.332       .  A
N3557      N3575   1.318       .  A
N3557      N3593   1.330       .  A
N3558      C3587   1.346       .  A
N3558      N3568   1.313       .  A
H3559      C3584   1.077       .  S
N3560      N3581   1.311       .  A
N3561      N3579   1.322       .  A
N3561      N3566   1.339       .  A
C3562      N3566   1.362       .  A
C3562      C3590   1.456       .  S
C3562      C3699   1.497       .  S
N3563      C3578   1.340       .  A
C3564      N3592   1.346       .  A
C3564      C3567   1.463       .  S
C3564      H3598   1.081       .  S
C3567      N3588   1.352       .  A
C3567      C3683   1.479       .  S
N3568      N3574   1.320       .  A
N3569      C3595   1.331       .  A
N3569      N3571   1.316       .  A
N3569     Co3585   2.060   1_655  S
N3570      C3584   1.357       .  A
N3571      N3599   1.333       .  A
N3571     Co3589   2.113   1_655  S
H3572      C3595   1.082       .  S
H3573      C3590   1.082       .  S
N3576      N3588   1.323       .  A
N3576      N3592   1.318       .  A
N3576     Co3585   2.095   1_655  S
C3577      N3581   1.345       .  A
C3577      C3591   1.485       .  S
C3578      C3597   1.468       .  S
C3578      H3582   1.082       .  S
N3579      C3590   1.326       .  A
N3579     Co3589   2.080   1_655  S
C3583      N3599   1.361       .  A
C3583      C3595   1.454       .  S
Co3585    Cl3596   2.426       .  S
N3586      C3597   1.358       .  A
Co3589    Cl3596   2.443       .  S
C3600      C3601   1.409       .  A
C3600      C3605   1.419       .  A
C3601      H3606   1.086       .  S
C3601      C3602   1.392       .  A
C3602      C3864   1.483       .  S
C3602      C3603   1.394       .  A
C3603      H3607   1.084       .  S
C3603      C3604   1.413       .  A
C3604      C3770   1.487       .  S
C3604      C3605   1.421       .  A
C3605      H3608   1.083       .  S
C3609      C3610   1.411       .  A
C3609      C3614   1.415       .  A
C3610      H3615   1.084       .  S
C3610      C3611   1.397       .  A
C3611      C3857   1.469       .  S
C3611      C3612   1.381       .  A
C3612      H3616   1.086       .  S
C3612      C3613   1.400       .  A
C3613      C3780   1.471       .  S
C3613      C3614   1.409       .  A
C3614      H3617   1.083       .  S
C3618      C3619   1.412       .  A
C3618      C3623   1.410       .  A
C3619      H3624   1.084       .  S
C3619      C3620   1.396       .  A
C3620      C3847   1.477       .  S
C3620      C3621   1.390       .  A
C3621      H3625   1.086       .  S
C3621      C3622   1.404       .  A
C3622      C3776   1.476       .  S
C3622      C3623   1.406       .  A
C3623      H3626   1.083       .  S
C3627      C3790   1.494       .  S
C3627      C3628   1.410       .  A
C3627      C3632   1.432       .  A
C3628      H3633   1.082       .  S
C3628      C3629   1.385       .  A
C3629      C3834   1.488       .  S
C3629      C3630   1.391       .  A
C3630      H3634   1.085       .  S
C3630      C3631   1.411       .  A
C3631      C3632   1.431       .  A
C3632      H3635   1.083       .  S
N3636      C3641   1.340       .  A
N3636      H3668   1.040       .  S
N3637      C3645   1.344       .  A
N3638      C3643   1.362       .  A
N3638      H3669   1.033       .  S
N3639      C3647   1.346       .  A
C3640      C3648   1.382       .  A
C3640      C3656   1.399       .  A
C3641      C3657   1.393       .  A
C3641      C3649   1.374       .  A
C3642      C3650   1.387       .  A
C3642      C3659   1.428       .  A
C3643      C3658   1.430       .  A
C3643      C3651   1.388       .  A
C3644      C3656   1.407       .  A
C3644      C3652   1.379       .  A
C3645      C3659   1.423       .  A
C3645      C3653   1.396       .  A
C3646      C3654   1.377       .  A
C3646      C3657   1.396       .  A
C3647      C3655   1.397       .  A
C3647      C3658   1.422       .  A
C3648      H3660   1.081       .  S
C3649      H3661   1.068       .  S
C3650      H3662   1.082       .  S
C3651      H3663   1.083       .  S
C3652      H3664   1.076       .  S
C3653      H3665   1.082       .  S
C3654      H3666   1.081       .  S
C3655      H3667   1.082       .  S
C3656      C3844   1.497       .  S
C3657      C3854   1.496       .  S
C3658      C3867   1.487       .  S
C3659      C3837   1.488       .  S
C3670      C3671   1.417       .  A
C3670      C3675   1.396       .  A
C3671      H3676   1.083       .  S
C3671      C3672   1.420       .  A
C3672      C3740   1.486       .  S
C3672      C3673   1.406       .  A
C3673      H3677   1.084       .  S
C3673      C3674   1.397       .  A
C3674      C3824   1.464       .  S
C3674      C3675   1.384       .  A
C3675      H3678   1.087       .  S
C3679      C3755   1.474       .  S
C3679      C3680   1.396       .  A
C3679      C3684   1.414       .  A
C3680      H3685   1.087       .  S
C3680      C3681   1.383       .  A
C3681      C3814   1.464       .  S
C3681      C3682   1.398       .  A
C3682      H3686   1.084       .  S
C3682      C3683   1.405       .  A
C3683      C3684   1.415       .  A
C3684      H3687   1.081       .  S
C3688      C3689   1.414       .  A
C3688      C3693   1.418       .  A
C3689      H3694   1.084       .  S
C3689      C3690   1.397       .  A
C3690      C3807   1.481       .  S
C3690      C3691   1.390       .  A
C3691      H3695   1.085       .  S
C3691      C3692   1.407       .  A
C3692      C3760   1.487       .  S
C3692      C3693   1.419       .  A
C3693      H3696   1.080       .  S
C3697      C3748   1.500       .  S
C3697      C3698   1.425       .  A
C3697      C3702   1.415       .  A
C3698      H3703   1.083       .  S
C3698      C3699   1.424       .  A
C3699      C3700   1.412       .  A
C3700      H3704   1.083       .  S
C3700      C3701   1.389       .  A
C3701      C3794   1.487       .  S
C3701      C3702   1.393       .  A
C3702      H3705   1.082       .  S
N3706      C3711   1.361       .  A
N3706      H3738   1.040       .  S
N3707      C3714   1.345       .  A
N3708      C3713   1.354       .  A
N3708      H3739   1.041       .  S
N3709      C3716   1.347       .  A
C3710      C3718   1.382       .  A
C3710      C3726   1.406       .  A
C3711      C3727   1.417       .  A
C3711      C3719   1.385       .  A
C3712      C3720   1.390       .  A
C3712      C3729   1.412       .  A
C3713      C3728   1.414       .  A
C3713      C3721   1.385       .  A
C3714      C3726   1.415       .  A
C3714      C3722   1.394       .  A
C3715      C3729   1.404       .  A
C3715      C3723   1.382       .  A
C3716      C3724   1.386       .  A
C3716      C3727   1.414       .  A
C3717      C3725   1.383       .  A
C3717      C3728   1.405       .  A
C3718      H3730   1.083       .  S
C3719      H3731   1.083       .  S
C3720      H3732   1.083       .  S
C3721      H3733   1.082       .  S
C3722      H3734   1.078       .  S
C3723      H3735   1.082       .  S
C3724      H3736   1.083       .  S
C3725      H3737   1.082       .  S
C3726      C3817   1.477       .  S
C3727      C3797   1.494       .  S
C3728      C3827   1.480       .  S
C3729      C3804   1.495       .  S
C3740      N3758   1.356       .  A
C3740      C3777   1.464       .  S
N3741      N3758   1.325       .  A
N3741      N3763   1.318       .  A
C3742      N3767   1.350       .  A
C3742      C3780   1.474       .  S
C3742      H3787   1.082       .  S
H3743      C3784   1.081       .  S
C3744      N3768   1.329       .  A
C3744      C3748   1.457       .  S
C3744      H3773   1.082       .  S
Co3745     N3785   2.104       .  S
Co3745     N3761   2.061       .  S
Co3745    Cl3789   2.429       .  S
N3746      C3784   1.354       .  A
N3746      N3753   1.322       .  A
Co3747     N3767   2.105       .  S
Co3747     N3754   2.100       .  S
Co3747    Cl3789   2.481       .  S
C3748      N3786   1.364       .  A
N3749      N3756   1.319       .  A
N3749      N3779   1.334       .  A
N3749     Co3782   2.093   1_565  S
N3750      N3768   1.319       .  A
N3750      N3786   1.339       .  A
N3751      C3780   1.347       .  A
N3751      N3761   1.313       .  A
H3752      C3777   1.082       .  S
N3753      N3774   1.318       .  A
N3754      N3772   1.318       .  A
N3754      N3759   1.327       .  A
C3755      N3759   1.357       .  A
C3755      C3783   1.475       .  S
N3756      C3771   1.333       .  A
C3757      N3785   1.353       .  A
C3757      C3760   1.475       .  S
C3757      H3791   1.082       .  S
C3760      N3781   1.351       .  A
N3761      N3767   1.317       .  A
N3762      C3788   1.326       .  A
N3762      N3764   1.312       .  A
N3762     Co3778   2.054       .  S
N3763      C3777   1.346       .  A
N3764      N3792   1.330       .  A
H3765      C3788   1.081       .  S
H3766      C3783   1.081       .  S
N3768     Co3782   2.083   1_565  S
N3769      N3781   1.319       .  A
N3769      N3785   1.314       .  A
N3769     Co3778   2.073       .  S
C3770      N3774   1.347       .  A
C3770      C3784   1.471       .  S
C3771      C3790   1.468       .  S
C3771      H3775   1.082       .  S
N3772      C3783   1.334       .  A
C3776      N3792   1.359       .  A
C3776      C3788   1.458       .  S
Co3778    Cl3789   2.422       .  S
N3779      C3790   1.355       .  A
C3793      C3794   1.405       .  A
C3793      C3798   1.383       .  A
C3793      F3800   1.358       .  S
C3794      C3795   1.410       .  A
C3795      C3796   1.416       .  A
C3795      F3802   1.357       .  S
C3796      C3797   1.410       .  A
C3796      F3801   1.356       .  S
C3797      C3798   1.401       .  A
C3798      F3799   1.354       .  S
C3803      C3804   1.412       .  A
C3803      C3808   1.402       .  A
C3803      F3810   1.354       .  S
C3804      C3805   1.405       .  A
C3805      C3806   1.401       .  A
C3805      F3812   1.355       .  S
C3806      C3807   1.405       .  A
C3806      F3811   1.358       .  S
C3807      C3808   1.401       .  A
C3808      F3809   1.358       .  S
C3813      C3814   1.397       .  A
C3813      C3818   1.392       .  A
C3813      F3820   1.358       .  S
C3814      C3815   1.410       .  A
C3815      C3816   1.396       .  A
C3815      F3822   1.358       .  S
C3816      C3817   1.399       .  A
C3816      F3821   1.357       .  S
C3817      C3818   1.411       .  A
C3818      F3819   1.357       .  S
C3823      C3824   1.407       .  A
C3823      C3828   1.396       .  A
C3823      F3830   1.358       .  S
C3824      C3825   1.400       .  A
C3825      C3826   1.395       .  A
C3825      F3832   1.358       .  S
C3826      C3827   1.407       .  A
C3826      F3831   1.355       .  S
C3827      C3828   1.392       .  A
C3828      F3829   1.352       .  S
C3833      C3834   1.404       .  A
C3833      C3838   1.410       .  A
C3833      F3840   1.354       .  S
C3834      C3835   1.413       .  A
C3835      C3836   1.380       .  A
C3835      F3842   1.354       .  S
C3836      C3837   1.398       .  A
C3836      F3841   1.360       .  S
C3837      C3838   1.409       .  A
C3838      F3839   1.355       .  S
C3843      C3844   1.411       .  A
C3843      C3848   1.395       .  A
C3843      F3850   1.348       .  S
C3844      C3845   1.402       .  A
C3845      C3846   1.400       .  A
C3845      F3852   1.349       .  S
C3846      C3847   1.409       .  A
C3846      F3851   1.357       .  S
C3847      C3848   1.395       .  A
C3848      F3849   1.358       .  S
C3853      C3854   1.418       .  A
C3853      C3858   1.389       .  A
C3853      F3860   1.351       .  S
C3854      C3855   1.403       .  A
C3855      C3856   1.405       .  A
C3855      F3862   1.357       .  S
C3856      C3857   1.409       .  A
C3856      F3861   1.357       .  S
C3857      C3858   1.390       .  A
C3858      F3859   1.358       .  S
C3863      C3864   1.407       .  A
C3863      C3868   1.412       .  A
C3863      F3870   1.356       .  S
C3864      C3865   1.408       .  A
C3865      C3866   1.380       .  A
C3865      F3872   1.357       .  S
C3866      C3867   1.400       .  A
C3866      F3871   1.360       .  S
C3867      C3868   1.408       .  A
C3868      F3869   1.356       .  S
C3873      C3874   1.409       .  A
C3873      C3878   1.405       .  A
C3873      F3880   1.358       .  S
C3874      C3875   1.399       .  A
C3875      C3876   1.392       .  A
C3875      F3882   1.358       .  S
C3876      C3877   1.410       .  A
C3876      F3881   1.356   1_556  S
C3877      C3878   1.403       .  A
C3878      F3879   1.354       .  S
C3883      C3884   1.398       .  A
C3883      C3888   1.393       .  A
C3883      F3890   1.358       .  S
C3884      C3885   1.410       .  A
C3885      C3886   1.399       .  A
C3885      F3892   1.358       .  S
C3886      C3887   1.400       .  A
C3886      F3891   1.358       .  S
C3887      C3888   1.408       .  A
C3888      F3889   1.359   1_556  S
C3893      C3894   1.404       .  A
C3893      C3898   1.382       .  A
C3893      F3900   1.359       .  S
C3894      C3895   1.411       .  A
C3895      C3896   1.411       .  A
C3895      F3902   1.357       .  S
C3896      C3897   1.405       .  A
C3896      F3901   1.357       .  S
C3897      C3898   1.405       .  A
C3898      F3899   1.358       .  S
C3903      C3904   1.411       .  A
C3903      C3908   1.412       .  A
C3903      F3910   1.357       .  S
C3904      C3905   1.401       .  A
C3905      C3906   1.380       .  A
C3905      F3912   1.360       .  S
C3906      C3907   1.407       .  A
C3906      F3911   1.357       .  S
C3907      C3908   1.407       .  A
C3908      F3909   1.356       .  S
