geometry optimzed in LAMMPS
_audit_creation_date              2020-11-30 
_audit_creation_method            'lammps2cif' 
_symmetry_space_group_name_H-M    'P1' 
_symmetry_Int_Tables_number       1 
_symmetry_cell_setting            triclinic 
loop_ 
_symmetry_equiv_pos_as_xyz 
  x,y,z 
_cell_length_a                    53.33271885663859 
_cell_length_b                    53.1492138339862 
_cell_length_c                    132.18264830842634 
_cell_angle_alpha                 90.22012128232802 
_cell_angle_beta                  90.06812690952785 
_cell_angle_gamma                 120.12308505377126 
loop_ 
_atom_site_label 
_atom_site_type_symbol 
_atom_site_fract_x 
_atom_site_fract_y 
_atom_site_fract_z 
_atom_site_charge 
C1          C  0.18611549  0.99905641  0.00083570     0.03660
C2          C  0.15961529  0.97273642  0.00115289    -0.12490
C3          C  0.13319702  0.97259206  0.00125085     0.01160
C4          C  0.13355391  0.99919858  0.00110136    -0.11020
C5          C  0.15987119  0.02572922  0.00090654     0.03650
C6          C  0.18606568  0.02544989  0.00071641    -0.10440
H7          H  0.15958769  0.95233599  0.00103298     0.09250
H8          H  0.11327878  0.99927067  0.00133776     0.06780
H9          H  0.20646787  0.04579738  0.00046534     0.06620
C10         C  0.02378857  0.86377658  0.00082673     0.03660
C11         C  0.99734965  0.86356766  0.00079934    -0.12490
C12         C  0.97084946  0.83723950  0.00057741     0.01160
C13         C  0.97100487  0.81089149  0.00026927    -0.11020
C14         C  0.99721433  0.81057599  0.00040572     0.03650
C15         C  0.02351113  0.83718823  0.00077729    -0.10440
H16         H  0.99738043  0.88395101  0.00118693     0.09250
H17         H  0.95063535  0.79056402  0.99973974     0.06780
H18         H  0.04384956  0.83727189  0.00102071     0.06620
C19         C  0.97041404  0.13421548  0.00001384     0.03660
C20         C  0.99672984  0.13421866  0.00038997    -0.12490
C21         C  0.02331892  0.16046987  0.00059276     0.01160
C22         C  0.02337147  0.18693132  0.00045625    -0.11020
C23         C  0.99725160  0.18739240  0.00014204     0.03650
C24         C  0.97088952  0.16087634  0.99984833    -0.10440
H25         H  0.99652992  0.11375578  0.00075668     0.09250
H26         H  0.04382790  0.20723374  0.00057581     0.06780
H27         H  0.95064474  0.16091633  0.99928680     0.06620
C28         C  0.86088556  0.02569091  0.00058675     0.03660
C29         C  0.86072371  0.99920507  0.00088796    -0.12490
C30         C  0.83450996  0.97258640  0.00114927     0.01160
C31         C  0.80819981  0.97266474  0.00109185    -0.11020
C32         C  0.80795124  0.99896184  0.00076849     0.03650
C33         C  0.83437967  0.02535435  0.00044375    -0.10440
H34         H  0.88109537  0.99932187  0.00111313     0.09250
H35         H  0.78786653  0.95222284  0.00101616     0.06780
H36         H  0.83428470  0.04566917  0.00008358     0.06620
C37         C  0.80936021  0.81098855  0.00077320     0.03660
C38         C  0.83591919  0.81140609  0.00037660    -0.12490
C39         C  0.86239268  0.83780629  0.00058091     0.01160
C40         C  0.86215848  0.86408712  0.00100191    -0.11020
C41         C  0.83588858  0.86420175  0.00114393     0.03650
C42         C  0.80963818  0.83758402  0.00116614    -0.10440
H43         H  0.83608602  0.79117974  0.99968900     0.09250
H44         H  0.88247080  0.88450566  0.00141269     0.06780
H45         H  0.78936504  0.83763436  0.00142528     0.06620
C46         C  0.15879424  0.13423989  0.00058483     0.03660
C47         C  0.13240497  0.13412278  0.00072109    -0.12490
C48         C  0.13191725  0.16029526  0.00069647     0.01160
C49         C  0.15826030  0.18683471  0.00070818    -0.11020
C50         C  0.18488265  0.18739867  0.00069216     0.03650
C51         C  0.18492500  0.16098033  0.00059410    -0.10440
H52         H  0.11219153  0.11361015  0.00106730     0.09250
H53         H  0.15801712  0.20708853  0.00049118     0.06780
H54         H  0.20536604  0.16123087  0.00053307     0.06620
C55         C  0.19354374  0.69166059  0.66799967     0.03660
C56         C  0.19329537  0.66513058  0.66828396    -0.12490
C57         C  0.16706257  0.63852749  0.66836196     0.01160
C58         C  0.14077469  0.63862382  0.66813260    -0.11020
C59         C  0.14054378  0.66492919  0.66775752     0.03650
C60         C  0.16703975  0.69136079  0.66771169    -0.10440
H61         H  0.21362842  0.66518536  0.66861269     0.09250
H62         H  0.12044514  0.61818078  0.66793874     0.06780
H63         H  0.16701379  0.71171199  0.66742008     0.06620
C64         C  0.30378579  0.79967872  0.66762666     0.03660
C65         C  0.32998386  0.79944519  0.66805694    -0.12490
C66         C  0.35671722  0.82557021  0.66814058     0.01160
C67         C  0.35701853  0.85216720  0.66802115    -0.11020
C68         C  0.33104198  0.85289546  0.66748303     0.03650
C69         C  0.30454309  0.82645983  0.66729219    -0.10440
H70         H  0.32956659  0.77889651  0.66854890     0.09250
H71         H  0.37758221  0.87232157  0.66832670     0.06780
H72         H  0.28437653  0.82664759  0.66669478     0.06620
C73         C  0.46605647  0.63759446  0.66809068     0.03660
C74         C  0.46612858  0.66404169  0.66781177    -0.12490
C75         C  0.49230180  0.69065291  0.66735588     0.01160
C76         C  0.51861370  0.69057890  0.66720293    -0.11020
C77         C  0.51904557  0.66435056  0.66758297     0.03650
C78         C  0.49259428  0.63797373  0.66811827    -0.10440
H79         H  0.44574420  0.66388825  0.66797179     0.09250
H80         H  0.53881143  0.71104145  0.66663199     0.06780
H81         H  0.49260498  0.61767701  0.66878606     0.06620
C82         C  0.46581171  0.82616852  0.66811502     0.03660
C83         C  0.46613770  0.79990204  0.66785331    -0.12490
C84         C  0.49242478  0.79986087  0.66747976     0.01160
C85         C  0.51859775  0.82651630  0.66720388    -0.11020
C86         C  0.51884165  0.85307886  0.66761662     0.03650
C87         C  0.49226753  0.85265106  0.66801135    -0.10440
H88         H  0.44587195  0.77941784  0.66815353     0.09250
H89         H  0.53882971  0.82653040  0.66647935     0.06780
H90         H  0.49215495  0.87296664  0.66820325     0.06620
C91         C  0.19540829  0.50421495  0.66718847     0.03660
C92         C  0.19498014  0.53034081  0.66778358    -0.12490
C93         C  0.16860262  0.53023135  0.66791372     0.01160
C94         C  0.14245170  0.50348043  0.66777140    -0.11020
C95         C  0.14243789  0.47703756  0.66706141     0.03650
C96         C  0.16913634  0.47773289  0.66667442    -0.10440
H97         H  0.21526681  0.55081066  0.66811352     0.09250
H98         H  0.12210828  0.50333596  0.66818597     0.06780
H99         H  0.16956552  0.45761932  0.66605773     0.06620
C100        C  0.35630805  0.52926432  0.66829605     0.03660
C101        C  0.33021097  0.52968514  0.66793169    -0.12490
C102        C  0.30354965  0.50369638  0.66712929     0.01160
C103        C  0.30306835  0.47705816  0.66670624    -0.11020
C104        C  0.32890035  0.47610446  0.66730431     0.03650
C105        C  0.35542545  0.50239794  0.66805925    -0.10440
H106        H  0.33062242  0.55027768  0.66796780     0.09250
H107        H  0.28247891  0.45706824  0.66594278     0.06780
H108        H  0.37549563  0.50200845  0.66861935     0.06620
C109        C  0.63757597  0.46685700  0.33300486     0.03660
C110        C  0.66386310  0.46670383  0.33306727    -0.12490
C111        C  0.69057290  0.49287883  0.33314110     0.01160
C112        C  0.69080206  0.51943200  0.33301806    -0.11020
C113        C  0.66477383  0.52002356  0.33278641     0.03650
C114        C  0.63827086  0.49364217  0.33281101    -0.10440
H115        H  0.66356382  0.44617045  0.33305441     0.09250
H116        H  0.71129122  0.53970396  0.33281792     0.06780
H117        H  0.61812477  0.49397728  0.33290659     0.06620
C118        C  0.82590314  0.46625288  0.33216807     0.03660
C119        C  0.79953942  0.46618758  0.33226727    -0.12490
C120        C  0.79911358  0.49240884  0.33244080     0.01160
C121        C  0.82552818  0.51893330  0.33260791    -0.11020
C122        C  0.85217248  0.51949451  0.33233498     0.03650
C123        C  0.85204539  0.49297028  0.33205057    -0.10440
H124        H  0.77931400  0.44566272  0.33252215     0.09250
H125        H  0.82527452  0.53915732  0.33300387     0.06780
H126        H  0.87238261  0.49307954  0.33162707     0.06620
C127        C  0.50113480  0.19655618  0.33295218     0.03660
C128        C  0.52762788  0.19687763  0.33275295    -0.12490
C129        C  0.52830689  0.17080425  0.33253380     0.01160
C130        C  0.50204161  0.14418125  0.33235960    -0.11020
C131        C  0.47527158  0.14335670  0.33261595     0.03650
C132        C  0.47510091  0.16971338  0.33301708    -0.10440
H133        H  0.54776904  0.21749537  0.33256803     0.09250
H134        H  0.50247908  0.12403051  0.33208569     0.06780
H135        H  0.45468680  0.16938224  0.33361465     0.06620
C136        C  0.52736078  0.35865033  0.33324026     0.03660
C137        C  0.52703309  0.33205866  0.33342659    -0.12490
C138        C  0.50074852  0.30549721  0.33365035     0.01160
C139        C  0.47451263  0.30572770  0.33366289    -0.11020
C140        C  0.47436435  0.33208841  0.33351305     0.03650
C141        C  0.50089515  0.35845585  0.33327188    -0.10440
H142        H  0.54732958  0.33204541  0.33314209     0.09250
H143        H  0.45414166  0.28532440  0.33375126     0.06780
H144        H  0.50091533  0.37885151  0.33334695     0.06620
C145        C  0.68952511  0.19570299  0.33386235     0.03660
C146        C  0.66339405  0.19605025  0.33333832    -0.12490
C147        C  0.63663529  0.16998555  0.33295852     0.01160
C148        C  0.63618957  0.14331580  0.33311963    -0.11020
C149        C  0.66208344  0.14246670  0.33373123     0.03650
C150        C  0.68864446  0.16883813  0.33406492    -0.10440
H151        H  0.66387564  0.21665129  0.33296985     0.09250
H152        H  0.61560601  0.12319101  0.33276847     0.06780
H153        H  0.70873729  0.16850475  0.33466894     0.06620
C154        C  0.79960383  0.30398740  0.33360813     0.03660
C155        C  0.79976192  0.33048852  0.33320947    -0.12490
C156        C  0.82597738  0.35711586  0.33291418     0.01160
C157        C  0.85228496  0.35702976  0.33312735    -0.11020
C158        C  0.85261102  0.33078445  0.33363866     0.03650
C159        C  0.82615265  0.30435604  0.33387011    -0.10440
H160        H  0.77939040  0.33036913  0.33313719     0.09250
H161        H  0.87260098  0.37747796  0.33291238     0.06780
H162        H  0.82623484  0.28404018  0.33422837     0.06620
N163        N  0.37364951  0.34409616  0.51940589    -0.26760
N164        N  0.39818272  0.35747183  0.51426021    -0.34620
C165        C  0.39273218  0.36321806  0.50491994     0.01580
C166        C  0.36351715  0.35356209  0.50402062     0.07610
C167        C  0.35202137  0.34162640  0.51338815    -0.05490
H168        H  0.40943778  0.37746873  0.49970128     0.08270
H169        H  0.33032187  0.33480213  0.51599497     0.09470
Cu170      Cu  0.43935229  0.37892173  0.52043432     0.44170
Cu171      Cu  0.37192664  0.33521124  0.53493271     0.41990
Cu172      Cu  0.44055656  0.38515004  0.54673916     0.43880
N173        N  0.47523591  0.41060291  0.52807961    -0.34140
N174        N  0.47511869  0.41307624  0.53800655    -0.28400
C175        C  0.49991650  0.43641138  0.54102847    -0.04500
C176        C  0.51642259  0.44949781  0.53255312     0.07720
C177        C  0.50014719  0.43263988  0.52443883     0.01510
H178        H  0.50512675  0.44366794  0.54880252     0.09160
H179        H  0.50558353  0.43651769  0.51649769     0.08240
N180        N  0.40656532  0.35187905  0.55426900    -0.35590
N181        N  0.38128752  0.33301998  0.55021617    -0.27770
C182        C  0.36541685  0.31309023  0.55730704    -0.03010
C183        C  0.38191421  0.31974718  0.56611238     0.05600
C184        C  0.40765585  0.34460086  0.56387286     0.03690
H185        H  0.34399934  0.29459673  0.55604613     0.08800
H186        H  0.42617234  0.35650444  0.56881015     0.07630
N187        N  0.65132479  0.61934906  0.51905987    -0.26760
N188        N  0.63661170  0.59486892  0.51382510    -0.34620
C189        C  0.63130815  0.60103387  0.50452053     0.01580
C190        C  0.64271326  0.63068353  0.50372590     0.07610
C191        C  0.65513965  0.64165669  0.51313087    -0.05490
H192        H  0.61646990  0.58476351  0.49922354     0.08270
H193        H  0.66338529  0.66368965  0.51581672     0.09470
Cu194      Cu  0.61396813  0.55331186  0.51973770     0.44170
Cu195      Cu  0.66066471  0.62078827  0.53458603     0.41990
Cu196      Cu  0.61258686  0.55143260  0.54600241     0.43880
N197        N  0.58330218  0.51719871  0.52751626    -0.34140
N198        N  0.58282986  0.51718194  0.53748596    -0.28400
C199        C  0.55955622  0.49284119  0.54074417    -0.04500
C200        C  0.54443348  0.47665398  0.53239184     0.07720
C201        C  0.56005001  0.49266796  0.52408790     0.01510
H202        H  0.55366099  0.48784146  0.54861407     0.09160
H203        H  0.55432950  0.48751884  0.51619117     0.08240
N204        N  0.64415724  0.58620644  0.55383444    -0.35590
N205        N  0.66243388  0.61186592  0.54996025    -0.27770
C206        C  0.68050822  0.62874648  0.55741312    -0.03010
C207        C  0.67275578  0.61277046  0.56634780     0.05600
C208        C  0.64980556  0.58590679  0.56367749     0.03690
H209        H  0.69786739  0.65092316  0.55642064     0.08800
H210        H  0.63838963  0.56697153  0.56842834     0.07630
N211        N  0.34375583  0.37801927  0.48157196    -0.26760
N212        N  0.35878425  0.40252795  0.48675572    -0.34620
C213        C  0.36404659  0.39636766  0.49606491     0.01580
C214        C  0.35222478  0.36666643  0.49690057     0.07610
C215        C  0.33963882  0.35566443  0.48752536    -0.05490
H216        H  0.37902464  0.41259702  0.50134346     0.08270
H217        H  0.33103145  0.33354258  0.48487805     0.09470
Cu218      Cu  0.38141245  0.44387697  0.48069877     0.44170
Cu219      Cu  0.33438591  0.37670025  0.46610137     0.41990
Cu220      Cu  0.38228219  0.44606669  0.45432119     0.43880
N221        N  0.41155883  0.48017011  0.47287755    -0.34140
N222        N  0.41193773  0.48045797  0.46290345    -0.28400
C223        C  0.43478625  0.50529684  0.45970353    -0.04500
C224        C  0.44969345  0.52146824  0.46809991     0.07720
C225        C  0.43441486  0.50492618  0.47635759     0.01510
H226        H  0.44051402  0.51072490  0.45184321     0.09160
H227        H  0.44000809  0.50999537  0.48426600     0.08240
N228        N  0.34992560  0.41095804  0.44675919    -0.35590
N229        N  0.33187893  0.38547412  0.45080560    -0.27770
C230        C  0.31314660  0.36830362  0.44355887    -0.03010
C231        C  0.31998436  0.38393304  0.43456272     0.05600
C232        C  0.34340465  0.41081744  0.43697475     0.03690
H233        H  0.29610832  0.34610515  0.44475614     0.08800
H234        H  0.35469676  0.42937775  0.43204779     0.07630
N235        N  0.62048301  0.65339498  0.48137623    -0.26760
N236        N  0.59601873  0.63955472  0.48654479    -0.34620
C237        C  0.60167793  0.63351848  0.49581286     0.01580
C238        C  0.63097429  0.64350805  0.49665141     0.07610
C239        C  0.64228673  0.65588413  0.48731046    -0.05490
H240        H  0.58510800  0.61905115  0.50103087     0.08270
H241        H  0.66404817  0.66317412  0.48466355     0.09470
Cu242      Cu  0.55469499  0.61850141  0.48046466     0.44170
Cu243      Cu  0.62195151  0.66312405  0.46590325     0.41990
Cu244      Cu  0.55208746  0.61605187  0.45414318     0.43880
N245        N  0.51826172  0.58800122  0.47272277    -0.34140
N246        N  0.51775890  0.58700419  0.46275274    -0.28400
C247        C  0.49300307  0.56377750  0.45961544    -0.04500
C248        C  0.47715650  0.54925460  0.46805470     0.07720
C249        C  0.49377868  0.56517082  0.47626678     0.01510
H250        H  0.48749810  0.55743142  0.45177703     0.09160
H251        H  0.48901603  0.55995638  0.48419136     0.08240
N252        N  0.58738035  0.64755376  0.44653016    -0.35590
N253        N  0.61301045  0.66550647  0.45055671    -0.27770
C254        C  0.63016173  0.68369904  0.44323841    -0.03010
C255        C  0.61445444  0.67632468  0.43422492     0.05600
C256        C  0.58745631  0.65349350  0.43669788     0.03690
H257        H  0.65239208  0.70077603  0.44435920     0.08800
H258        H  0.56876979  0.64231010  0.43178282     0.07630
C259        C  0.64093365  0.76482112  0.38293274     0.03660
C260        C  0.63831998  0.75363806  0.39274527    -0.12490
C261        C  0.64054662  0.72876929  0.39446341     0.01160
C262        C  0.64523479  0.71496520  0.38619125    -0.11020
C263        C  0.64718520  0.72540573  0.37632419     0.03650
C264        C  0.64547266  0.75066285  0.37476302    -0.10440
H265        H  0.63402309  0.76407529  0.39902518     0.09250
H266        H  0.64656521  0.69551263  0.38739416     0.06780
H267        H  0.64714704  0.75900308  0.36717578     0.06620
C268        C  0.76599209  0.64621037  0.61717244     0.03660
C269        C  0.75306594  0.64076185  0.60754116    -0.12490
C270        C  0.72628559  0.63924598  0.60608079     0.01160
C271        C  0.71202501  0.64250345  0.61447313    -0.11020
C272        C  0.72428908  0.64737509  0.62417885     0.03650
C273        C  0.75138417  0.64927960  0.62549862    -0.10440
H274        H  0.76378842  0.63726825  0.60118534     0.09250
H275        H  0.69162515  0.64200685  0.61342811     0.06780
H276        H  0.76120299  0.65347234  0.63295210     0.06620
C277        C  0.22649683  0.34851987  0.38382622     0.03660
C278        C  0.23923818  0.35331876  0.39347508    -0.12490
C279        C  0.26639152  0.35562768  0.39483128     0.01160
C280        C  0.28071399  0.35269544  0.38640690    -0.11020
C281        C  0.26873269  0.34860892  0.37667342     0.03650
C282        C  0.24159730  0.34670172  0.37540652    -0.10440
H283        H  0.22821611  0.35593167  0.39992868     0.09250
H284        H  0.30148685  0.35396085  0.38739928     0.06780
H285        H  0.23189980  0.34299444  0.36794491     0.06620
C286        C  0.35680886  0.23167963  0.61754373     0.03660
C287        C  0.35995620  0.24214293  0.60762255    -0.12490
C288        C  0.35754830  0.26661664  0.60550346     0.01160
C289        C  0.35243942  0.28114748  0.61338997    -0.11020
C290        C  0.34987824  0.27138284  0.62340402     0.03650
C291        C  0.35175038  0.24636201  0.62540855    -0.10440
H292        H  0.36409104  0.23109483  0.60149717     0.09250
H293        H  0.35177938  0.30078007  0.61177167     0.06780
H294        H  0.34969573  0.23856597  0.63309709     0.06620
N295        N  0.64703479  0.02715161  0.51992630    -0.26760
N296        N  0.63282014  0.03743407  0.51478907    -0.34620
C297        C  0.62788415  0.02660725  0.50536498     0.01580
C298        C  0.63913378  0.00834114  0.50439916     0.07610
C299        C  0.65098624  0.00901197  0.51381815    -0.05490
H300        H  0.61353767  0.02860323  0.50004829     0.08270
H301        H  0.65901094  0.99501243  0.51635251     0.09470
Cu302      Cu  0.61095711  0.05673297  0.52094677     0.44170
Cu303      Cu  0.65567220  0.03432198  0.53546392     0.41990
Cu304      Cu  0.60829140  0.05661045  0.54726590     0.43880
N305        N  0.58124605  0.06367704  0.52864408    -0.34140
N306        N  0.58009407  0.06302586  0.53860841    -0.28400
C307        C  0.55783594  0.06612100  0.54168320    -0.04500
C308        C  0.54413039  0.06865366  0.53320017     0.07720
C309        C  0.55947585  0.06698003  0.52503657     0.01510
H310        H  0.55169637  0.06576438  0.54950296     0.09160
H311        H  0.55470390  0.06726127  0.51709311     0.08240
N312        N  0.64089943  0.05446953  0.55470896    -0.35590
N313        N  0.65851076  0.04642475  0.55070330    -0.27770
C314        C  0.67807638  0.04946848  0.55781185    -0.03010
C315        C  0.67243339  0.06024911  0.56658711     0.05600
C316        C  0.64872088  0.06300341  0.56429275     0.03690
H317        H  0.69570844  0.04530396  0.55655993     0.08800
H318        H  0.63806531  0.07109000  0.56918972     0.07630
N319        N  0.37547653  0.03052384  0.51874779    -0.26760
N320        N  0.40022385  0.04179274  0.51372775    -0.34620
C321        C  0.39511261  0.03061010  0.50435329     0.01580
C322        C  0.36588381  0.01105503  0.50329135     0.07610
C323        C  0.35403855  0.01139938  0.51260339    -0.05490
H324        H  0.41198890  0.03324829  0.49918849     0.08270
H325        H  0.33216165  0.99653151  0.51507765     0.09470
Cu326      Cu  0.44122284  0.06252573  0.52006088     0.44170
Cu327      Cu  0.37298503  0.03769316  0.53425133     0.41990
Cu328      Cu  0.44337003  0.06533614  0.54628216     0.43880
N329        N  0.47735033  0.06902190  0.52803045    -0.34140
N330        N  0.47768571  0.06948399  0.53800137    -0.28400
C331        C  0.50191736  0.07048075  0.54134519    -0.04500
C332        C  0.51759107  0.07048482  0.53303343     0.07720
C333        C  0.50144354  0.06958307  0.52468813     0.01510
H334        H  0.50704458  0.06995286  0.54923605     0.09160
H335        H  0.50607542  0.06794261  0.51682382     0.08240
N336        N  0.40745782  0.06106860  0.55349721    -0.35590
N337        N  0.38133667  0.05054750  0.54948565    -0.27770
C338        C  0.36365463  0.05157254  0.55659527    -0.03010
C339        C  0.37983807  0.06368073  0.56535264     0.05600
C340        C  0.40734814  0.06931524  0.56305817     0.03690
H341        H  0.34112049  0.04499679  0.55538039     0.08800
H342        H  0.42613608  0.07891281  0.56798275     0.07630
N343        N  0.34525898  0.96647325  0.48072550    -0.26760
N344        N  0.36027886  0.95698649  0.48579955    -0.34620
C345        C  0.36609453  0.96872387  0.49509416     0.01580
C346        C  0.35457228  0.98675127  0.49604368     0.07610
C347        C  0.34163842  0.98499921  0.48674765    -0.05490
H348        H  0.38107257  0.96740434  0.50029714     0.08270
H349        H  0.33303382  0.99849535  0.48420259     0.09470
Cu350      Cu  0.38193736  0.93752377  0.47961236     0.44170
Cu351      Cu  0.33524300  0.95791219  0.46529300     0.41990
Cu352      Cu  0.38328908  0.93677731  0.45331512     0.43880
N353        N  0.41166678  0.93092411  0.47178457    -0.34140
N354        N  0.41233811  0.93128372  0.46181515    -0.28400
C355        C  0.43496516  0.92897854  0.45862718    -0.04500
C356        C  0.44938785  0.92723485  0.46704126     0.07720
C357        C  0.43408159  0.92854257  0.47528235     0.01510
H358        H  0.44089727  0.92942135  0.45077755     0.09160
H359        H  0.43939211  0.92881210  0.48319969     0.08240
N360        N  0.35109106  0.93963202  0.44586127    -0.35590
N361        N  0.33284243  0.94668477  0.44995956    -0.27770
C362        C  0.31417459  0.94500137  0.44270618    -0.03010
C363        C  0.32152157  0.93686971  0.43366427     0.05600
C364        C  0.34483520  0.93348381  0.43604514     0.03690
H365        H  0.29675936  0.94952919  0.44389882     0.08800
H366        H  0.35611829  0.92625805  0.43109110     0.07630
N367        N  0.61872960  0.96595495  0.48139561    -0.26760
N368        N  0.59386495  0.95445531  0.48634731    -0.34620
C369        C  0.59877254  0.96505773  0.49580069     0.01580
C370        C  0.62798618  0.98448790  0.49698128     0.07610
C371        C  0.64004422  0.98468357  0.48765953    -0.05490
H372        H  0.58179098  0.96218187  0.50095647     0.08270
H373        H  0.66199324  0.99964989  0.48527954     0.09470
Cu374      Cu  0.55306780  0.93437174  0.47987291     0.44170
Cu375      Cu  0.62149766  0.95954011  0.46586584     0.41990
Cu376      Cu  0.55171862  0.93444874  0.45363446     0.43880
N377        N  0.51714788  0.92859419  0.47194394    -0.34140
N378        N  0.51710950  0.92923749  0.46197706    -0.28400
C379        C  0.49265931  0.92791467  0.45871381    -0.04500
C380        C  0.47654611  0.92656982  0.46707961     0.07720
C381        C  0.49266917  0.92704157  0.47536841     0.01510
H382        H  0.48757615  0.92895122  0.45085379     0.09160
H383        H  0.48761591  0.92747002  0.48327031     0.08240
N384        N  0.58724657  0.93755257  0.44651807    -0.35590
N385        N  0.61310239  0.94700663  0.45062377    -0.27770
C386        C  0.63039592  0.94484232  0.44362702    -0.03010
C387        C  0.61417602  0.93299965  0.43487259     0.05600
C388        C  0.58712735  0.92886181  0.43700340     0.03690
H389        H  0.65261118  0.95035493  0.44492934     0.08800
H390        H  0.56846152  0.91982896  0.43202574     0.07630
C391        C  0.63783274  0.87124651  0.38291686     0.03660
C392        C  0.63517278  0.87884489  0.39286392    -0.12490
C393        C  0.63692197  0.90546637  0.39505114     0.01160
C394        C  0.64115011  0.92471131  0.38715028    -0.11020
C395        C  0.64410270  0.91762883  0.37715026     0.03650
C396        C  0.64288662  0.89100574  0.37507268    -0.10440
H397        H  0.63209070  0.86406478  0.39899125     0.09250
H398        H  0.64200737  0.94513768  0.38876635     0.06780
H399        H  0.64514083  0.88541410  0.36736560     0.06620
C400        C  0.76183466  0.12496508  0.61779956     0.03660
C401        C  0.75023603  0.11737809  0.60799608    -0.12490
C402        C  0.72578712  0.09027531  0.60601693     0.01160
C403        C  0.71248231  0.07052805  0.61392258    -0.11020
C404        C  0.72354506  0.07777809  0.62380880     0.03650
C405        C  0.74843050  0.10500804  0.62570155    -0.10440
H406        H  0.76052290  0.13245943  0.60181478     0.09250
H407        H  0.69335450  0.04964008  0.61239196     0.06780
H408        H  0.75688458  0.11091862  0.63333326     0.06620
C409        C  0.23160051  0.87176344  0.38265742     0.03660
C410        C  0.24276399  0.88095879  0.39247101    -0.12490
C411        C  0.26743219  0.90829690  0.39412842     0.01160
C412        C  0.28087108  0.92654360  0.38583268    -0.11020
C413        C  0.27040486  0.91752551  0.37598102     0.03650
C414        C  0.24542952  0.89022775  0.37443840    -0.10440
H415        H  0.23245409  0.86655269  0.39880635     0.09250
H416        H  0.30013884  0.94756697  0.38700641     0.06780
H417        H  0.23701612  0.88319170  0.36685215     0.06620
C418        C  0.35618090  0.12378169  0.61765084     0.03660
C419        C  0.35765880  0.11593424  0.60763929    -0.12490
C420        C  0.35581355  0.08932770  0.60536105     0.01160
C421        C  0.35187181  0.07000670  0.61321754    -0.11020
C422        C  0.35028948  0.07746864  0.62333008     0.03650
C423        C  0.35218124  0.10438762  0.62547777    -0.10440
H424        H  0.36050538  0.13077960  0.60156089     0.09250
H425        H  0.35147131  0.04985890  0.61149674     0.06780
H426        H  0.35103231  0.11045375  0.63322733     0.06620
N427        N  0.96699143  0.34489447  0.51929603    -0.26760
N428        N  0.95666541  0.35886451  0.51402575    -0.34620
C429        C  0.96884779  0.36505343  0.50484675     0.01580
C430        C  0.98818690  0.35507727  0.50419446     0.07610
C431        C  0.98659113  0.34248412  0.51353011    -0.05490
H432        H  0.96711218  0.37969401  0.49959918     0.08270
H433        H  0.00093698  0.33517755  0.51631385     0.09470
Cu434      Cu  0.93649640  0.38024921  0.51988047     0.44170
Cu435      Cu  0.95824455  0.33501204  0.53470076     0.41990
Cu436      Cu  0.93898805  0.38477490  0.54612218     0.43880
N437        N  0.93132920  0.41137571  0.52749988    -0.34140
N438        N  0.93306182  0.41320371  0.53744988    -0.28400
C439        C  0.93118317  0.43622727  0.54054474    -0.04500
C440        C  0.92830587  0.44977141  0.53209618     0.07720
C441        C  0.92851477  0.43351588  0.52391469     0.01510
H442        H  0.93245338  0.44288888  0.54836200     0.09160
H443        H  0.92752744  0.43787557  0.51597903     0.08240
N444        N  0.93996087  0.35194683  0.55382603    -0.35590
N445        N  0.94630895  0.33292142  0.54991524    -0.27770
C446        C  0.94307419  0.31376065  0.55720453    -0.03010
C447        C  0.93436586  0.32142862  0.56606980     0.05600
C448        C  0.93267011  0.34570061  0.56354406     0.03690
H449        H  0.94697480  0.29583744  0.55613158     0.08800
H450        H  0.92586351  0.35770765  0.56833287     0.07630
N451        N  0.95861680  0.61753866  0.51864791    -0.26760
N452        N  0.94846817  0.59293103  0.51347243    -0.34620
C453        C  0.95969890  0.59877806  0.50414426     0.01580
C454        C  0.97824833  0.62834103  0.50328712     0.07610
C455        C  0.97716806  0.63961570  0.51266493    -0.05490
H456        H  0.95808576  0.58231242  0.49891034     0.08270
H457        H  0.99130844  0.66163050  0.51530704     0.09470
Cu458      Cu  0.93023458  0.55169598  0.51954740     0.44170
Cu459      Cu  0.95126672  0.61929425  0.53417085     0.41990
Cu460      Cu  0.93237413  0.55075248  0.54583013     0.43880
N461        N  0.92696554  0.51647939  0.52730266    -0.34140
N462        N  0.92841627  0.51677365  0.53726183    -0.28400
C463        C  0.92839442  0.49286568  0.54044356    -0.04500
C464        C  0.92702971  0.47669882  0.53204620     0.07720
C465        C  0.92616285  0.49225720  0.52380254     0.01510
H466        H  0.93008604  0.48810832  0.54828324     0.09160
H467        H  0.92599834  0.48694046  0.51588381     0.08240
N468        N  0.93406944  0.58510988  0.55349903    -0.35590
N469        N  0.94063080  0.61043623  0.54952112    -0.27770
C470        C  0.93864407  0.62712452  0.55685662    -0.03010
C471        C  0.93048686  0.61130119  0.56583059     0.05600
C472        C  0.92782216  0.58483262  0.56330558     0.03690
H473        H  0.94308316  0.64912011  0.55573414     0.08800
H474        H  0.92120062  0.56624270  0.56816848     0.07630
N475        N  0.02310946  0.64943032  0.48101415    -0.26760
N476        N  0.03369734  0.63586214  0.48637134    -0.34620
C477        C  0.02201428  0.63042633  0.49563240     0.01580
C478        C  0.00281749  0.64060706  0.49625325     0.07610
C479        C  0.00388477  0.65239422  0.48680228    -0.05490
H480        H  0.02413683  0.61633482  0.50102804     0.08270
H481        H  0.98953332  0.65967789  0.48400515     0.09470
Cu482      Cu  0.05470257  0.61518745  0.48059968     0.44170
Cu483      Cu  0.03170155  0.65867213  0.46558744     0.41990
Cu484      Cu  0.06054605  0.61579489  0.45436638     0.43880
N485        N  0.06357131  0.58641595  0.47303744    -0.34140
N486        N  0.06521248  0.58650552  0.46308448    -0.28400
C487        C  0.06867230  0.56433857  0.46003136    -0.04500
C488        C  0.06908222  0.54941026  0.46850773     0.07720
C489        C  0.06578372  0.56396222  0.47664908     0.01510
H490        H  0.06990365  0.55902745  0.45220518     0.09160
H491        H  0.06407257  0.55809912  0.48455161     0.08240
N492        N  0.05715307  0.64774656  0.44688206    -0.35590
N493        N  0.04635245  0.66339997  0.45063959    -0.27770
C494        C  0.04842076  0.68253502  0.44352547    -0.03010
C495        C  0.06159856  0.67881477  0.43504376     0.05600
C496        C  0.06659090  0.65651231  0.43746408     0.03690
H497        H  0.04174647  0.69852111  0.44455845     0.08800
H498        H  0.07647678  0.64725720  0.43272927     0.07630
N499        N  0.03397443  0.37967625  0.48219163    -0.26760
N500        N  0.04323221  0.40411114  0.48739383    -0.34620
C501        C  0.03125381  0.39783899  0.49660927     0.01580
C502        C  0.01319817  0.36813750  0.49735339     0.07610
C503        C  0.01531916  0.35725818  0.48803026    -0.05490
H504        H  0.03217898  0.41401386  0.50183539     0.08270
H505        H  0.00182234  0.33521514  0.48530337     0.09470
Cu506      Cu  0.06211497  0.44547585  0.48135820     0.44170
Cu507      Cu  0.04268053  0.37859988  0.46678846     0.41990
Cu508      Cu  0.06696138  0.44884077  0.45504500     0.43880
N509        N  0.06843538  0.48177797  0.47350176    -0.34140
N510        N  0.06989026  0.48265019  0.46354120    -0.28400
C511        C  0.07122543  0.50716732  0.46028404    -0.04500
C512        C  0.07040798  0.52247104  0.46862885     0.07720
C513        C  0.06864015  0.50577897  0.47691038     0.01510
H514        H  0.07164333  0.51282054  0.45240675     0.09160
H515        H  0.06646982  0.51012465  0.48476784     0.08240
N516        N  0.06283930  0.41308539  0.44750486    -0.35590
N517        N  0.05422322  0.38728935  0.45152442    -0.27770
C518        C  0.05436988  0.36951748  0.44422234    -0.03010
C519        C  0.06317564  0.38498467  0.43521338     0.05600
C520        C  0.06854943  0.41252463  0.43767707     0.03690
H521        H  0.04819080  0.34698992  0.44535143     0.08800
H522        H  0.07657902  0.43118799  0.43276059     0.07630
C523        C  0.12351577  0.76401594  0.38322050     0.03660
C524        C  0.11566133  0.75450724  0.39320142    -0.12490
C525        C  0.08876800  0.73007586  0.39538233     0.01160
C526        C  0.06942140  0.71495319  0.38745185    -0.11020
C527        C  0.07704352  0.72393511  0.37738648     0.03650
C528        C  0.10411528  0.74866379  0.37532575    -0.10440
H529        H  0.13055808  0.76625661  0.39933824     0.09250
H530        H  0.04906303  0.69540199  0.38907030     0.06780
H531        H  0.11022072  0.75570721  0.36758512     0.06620
C532        C  0.87357011  0.64533626  0.61712145     0.03660
C533        C  0.88066325  0.63989055  0.60743672    -0.12490
C534        C  0.90544997  0.63761374  0.60589094     0.01160
C535        C  0.92340800  0.64103226  0.61416975    -0.11020
C536        C  0.91664086  0.64632303  0.62390854     0.03650
C537        C  0.89161378  0.64845335  0.62535670    -0.10440
H538        H  0.86651696  0.63694056  0.60109600     0.09250
H539        H  0.94317444  0.64037271  0.61299653     0.06780
H540        H  0.88643570  0.65291596  0.63283508     0.06620
C541        C  0.11801460  0.34780102  0.38420013     0.03660
C542        C  0.11019520  0.35181932  0.39397326    -0.12490
C543        C  0.08494942  0.35325236  0.39559103     0.01160
C544        C  0.06726844  0.35036089  0.38728183    -0.11020
C545        C  0.07492229  0.34684528  0.37745691     0.03650
C546        C  0.10049169  0.34578153  0.37592830    -0.10440
H547        H  0.12438639  0.35475704  0.40029291     0.09250
H548        H  0.04772600  0.35146622  0.38842322     0.06780
H549        H  0.10633440  0.34272025  0.36836225     0.06620
C550        C  0.86961929  0.23330829  0.61741138     0.03660
C551        C  0.87782377  0.24451172  0.60758907    -0.12490
C552        C  0.90462615  0.26963994  0.60586473     0.01160
C553        C  0.92348534  0.28333322  0.61403798    -0.11020
C554        C  0.91560509  0.27261188  0.62388712     0.03650
C555        C  0.88871556  0.24730992  0.62552158    -0.10440
H556        H  0.86317251  0.23384303  0.60129378     0.09250
H557        H  0.94420931  0.30278660  0.61275042     0.06780
H558        H  0.88253650  0.23864593  0.63309280     0.06620
C559        C  0.32836359  0.36643589  0.66668438     0.03660
C560        C  0.33319760  0.35527828  0.65765774    -0.12490
C561        C  0.33389827  0.32923680  0.65771632     0.01160
C562        C  0.32843346  0.31366102  0.66672447    -0.11020
C563        C  0.32300336  0.32397157  0.67572465     0.03650
C564        C  0.32333825  0.35055240  0.67571753    -0.10440
H565        H  0.33655194  0.36681574  0.65060068     0.09250
H566        H  0.32846766  0.29327440  0.66673309     0.06780
H567        H  0.31959112  0.35875039  0.68272847     0.06620
C568        C  0.62931860  0.66676518  0.66776338     0.03660
C569        C  0.64103532  0.66324046  0.65865100    -0.12490
C570        C  0.66814660  0.66484846  0.65860427     0.01160
C571        C  0.68326749  0.66952434  0.66770010    -0.11020
C572        C  0.67216770  0.67317497  0.67680875     0.03650
C573        C  0.64494601  0.67126346  0.67685393    -0.10440
H574        H  0.62953110  0.66005716  0.65157293     0.09250
H575        H  0.70376210  0.66985466  0.66770876     0.06780
H576        H  0.63606396  0.67339013  0.68395804     0.06620
C577        C  0.36535009  0.33177295  0.33298948     0.03660
C578        C  0.35387762  0.33594119  0.34204430    -0.12490
C579        C  0.32787728  0.33667148  0.34194246     0.01160
C580        C  0.31336658  0.33295325  0.33275695    -0.11020
C581        C  0.32436373  0.32884199  0.32370773     0.03650
C582        C  0.35016580  0.32785756  0.32383637    -0.10440
H583        H  0.36557125  0.33942529  0.34909695     0.09250
H584        H  0.29301773  0.33292159  0.33264210     0.06780
H585        H  0.35848296  0.32431814  0.31682759     0.06620
C586        C  0.66583931  0.62973889  0.33249006     0.03660
C587        C  0.66196127  0.64121245  0.34160909    -0.12490
C588        C  0.66030358  0.66676310  0.34158850     0.01160
C589        C  0.66273225  0.68086841  0.33242864    -0.11020
C590        C  0.66627886  0.66974642  0.32328330     0.03650
C591        C  0.66812639  0.64429802  0.32333449    -0.10440
H592        H  0.65928016  0.62980180  0.34865632     0.09250
H593        H  0.66213007  0.70096224  0.33242869     0.06780
H594        H  0.67106646  0.63573105  0.31626413     0.06620
C595        C  0.03191337  0.66522085  0.66719209     0.03660
C596        C  0.01670254  0.66199633  0.65809259    -0.12490
C597        C  0.99132031  0.66383946  0.65809305     0.01160
C598        C  0.98106851  0.66850500  0.66722816    -0.11020
C599        C  0.99605336  0.67223789  0.67630550     0.03650
C600        C  0.02134362  0.67028614  0.67628776    -0.10440
H601        H  0.02463940  0.65820385  0.65103957     0.09250
H602        H  0.96091419  0.66885100  0.66728910     0.06780
H603        H  0.03316939  0.67348354  0.68329347     0.06620
C604        C  0.33188759  0.96279918  0.66681307     0.03660
C605        C  0.33679146  0.97844168  0.65772068    -0.12490
C606        C  0.33769250  0.00531296  0.65766863     0.01160
C607        C  0.33261741  0.01598948  0.66665642    -0.11020
C608        C  0.32752595  0.00079443  0.67573609     0.03650
C609        C  0.32773385  0.97450226  0.67583441    -0.10440
H610        H  0.33998186  0.96984300  0.65070306     0.09250
H611        H  0.33262447  0.03639569  0.66658452     0.06780
H612        H  0.32446234  0.96314717  0.68292609     0.06620
C613        C  0.99506046  0.70005192  0.00010076     0.03660
C614        C  0.99189356  0.68477360  0.00916010    -0.12490
C615        C  0.99050101  0.65767347  0.00898834     0.01160
C616        C  0.99291416  0.64620052  0.99974171    -0.11020
C617        C  0.99616515  0.66094560  0.99066552     0.03650
C618        C  0.99747073  0.68800456  0.99087072    -0.10440
H619        H  0.99037208  0.69382907  0.01633035     0.09250
H620        H  0.99276148  0.62572429  0.99963186     0.06780
H621        H  0.99963037  0.69925999  0.98382568     0.06620
N622        N  0.31800992  0.95601904  0.85279574    -0.26760
N623        N  0.30432707  0.93136272  0.84760304    -0.34620
C624        C  0.29896495  0.93693747  0.83822171     0.01580
C625        C  0.30937551  0.96639120  0.83733221     0.07610
C626        C  0.32116590  0.97787325  0.84675922    -0.05490
H627        H  0.28487696  0.92028312  0.83288855     0.08270
H628        H  0.32867672  0.99986587  0.84934549     0.09470
Cu629      Cu  0.28345763  0.88998873  0.85364025     0.44170
Cu630      Cu  0.32731177  0.95792605  0.86831189     0.41990
Cu631      Cu  0.28422621  0.88710561  0.87989410     0.43880
N632        N  0.25381159  0.85349131  0.86144637    -0.34140
N633        N  0.25388301  0.85301831  0.87141631    -0.28400
C634        C  0.23061719  0.82860919  0.87466171    -0.04500
C635        C  0.21503377  0.81290211  0.86629139     0.07720
C636        C  0.23033151  0.82922921  0.85800684     0.01510
H637        H  0.22497192  0.82329599  0.88253357     0.09160
H638        H  0.22410056  0.82462096  0.85012707     0.08240
N639        N  0.31629016  0.92272526  0.88729015    -0.35590
N640        N  0.33193883  0.94905025  0.88343454    -0.27770
C641        C  0.35078751  0.96659603  0.89059854    -0.03010
C642        C  0.34678364  0.95012137  0.89922540     0.05600
C643        C  0.32479174  0.92255750  0.89680324     0.03690
H644        H  0.36673066  0.98928149  0.88951381     0.08800
H645        H  0.31551782  0.90360198  0.90162181     0.07630
N646        N  0.04458688  0.67917930  0.85244854    -0.26760
N647        N  0.06929599  0.69356635  0.84745500    -0.34620
C648        C  0.06389890  0.69933812  0.83811137     0.01580
C649        C  0.03451178  0.68858264  0.83706231     0.07610
C650        C  0.02286573  0.67599810  0.84633442    -0.05490
H651        H  0.08056141  0.71421517  0.83300125     0.08270
H652        H  0.00088889  0.66827189  0.84883161     0.09470
Cu653      Cu  0.11010011  0.71584755  0.85389086     0.44170
Cu654      Cu  0.04252681  0.67017776  0.86793939     0.41990
Cu655      Cu  0.10946564  0.72290704  0.88015430     0.43880
N656        N  0.14545900  0.74762111  0.86173041    -0.34140
N657        N  0.14471423  0.75038798  0.87162669    -0.28400
C658        C  0.16955797  0.77348895  0.87476001    -0.04500
C659        C  0.18671441  0.78613098  0.86638115     0.07720
C660        C  0.17079352  0.76927018  0.85821506     0.01510
H661        H  0.17438721  0.78088121  0.88253177     0.09160
H662        H  0.17683762  0.77280619  0.85031646     0.08240
N663        N  0.07573759  0.68906031  0.88754793    -0.35590
N664        N  0.05130522  0.66900761  0.88331890    -0.27770
C665        C  0.03574950  0.64881333  0.89036568    -0.03010
C666        C  0.05155521  0.65659099  0.89934938     0.05600
C667        C  0.07654540  0.68237223  0.89724316     0.03690
H668        H  0.01504544  0.62945199  0.88896565     0.08800
H669        H  0.09441053  0.69535476  0.90231724     0.07630
N670        N  0.28750134  0.98663017  0.81438978    -0.26760
N671        N  0.26284997  0.97296733  0.81945767    -0.34620
C672        C  0.26827020  0.96790590  0.82890276     0.01580
C673        C  0.29761722  0.97842602  0.82996238     0.07610
C674        C  0.30919281  0.99003285  0.82056963    -0.05490
H675        H  0.25159423  0.95372622  0.83414260     0.08270
H676        H  0.33111342  0.99738232  0.81809115     0.09470
Cu677      Cu  0.22182653  0.95118892  0.81315315     0.44170
Cu678      Cu  0.28952671  0.99500742  0.79881500     0.41990
Cu679      Cu  0.22002465  0.94723143  0.78684409     0.43880
N680        N  0.18552100  0.92055987  0.80539482    -0.34140
N681        N  0.18526110  0.91897904  0.79543546    -0.28400
C682        C  0.16018652  0.89609230  0.79233112    -0.04500
C683        C  0.14391343  0.88238974  0.80079050     0.07720
C684        C  0.16060465  0.89841488  0.80897054     0.01510
H685        H  0.15468337  0.88945695  0.78451423     0.09160
H686        H  0.15546529  0.89384421  0.81690806     0.08240
N687        N  0.25502973  0.97971206  0.77944148    -0.35590
N688        N  0.28066803  0.99751882  0.78350023    -0.27770
C689        C  0.29733656  0.01698966  0.77640140    -0.03010
C690        C  0.28097032  0.01114859  0.76760566     0.05600
C691        C  0.25447427  0.98730082  0.76984162     0.03690
H692        H  0.31918631  0.03472387  0.77766234     0.08800
H693        H  0.23580397  0.97641587  0.76489922     0.07630
N694        N  0.01314249  0.71176366  0.81467721    -0.26760
N695        N  0.02758780  0.73638685  0.81984080    -0.34620
C696        C  0.03348520  0.73062056  0.82911295     0.01580
C697        C  0.02262146  0.70106450  0.82993915     0.07610
C698        C  0.00996389  0.68972145  0.82060727    -0.05490
H699        H  0.04817253  0.74713603  0.83437308     0.08270
H700        H  0.00191162  0.66767587  0.81796993     0.09470
Cu701      Cu  0.04851709  0.77771495  0.81375726     0.44170
Cu702      Cu  0.00315739  0.71010803  0.79927911     0.41990
Cu703      Cu  0.04636298  0.78080662  0.78746651     0.43880
N704        N  0.07764758  0.81428277  0.80585364    -0.34140
N705        N  0.07704474  0.81492798  0.79588897    -0.28400
C706        C  0.09995447  0.83959281  0.79259719    -0.04500
C707        C  0.11586221  0.85526200  0.80092944     0.07720
C708        C  0.10112477  0.83863705  0.80923634     0.01510
H709        H  0.10512787  0.84514371  0.78471251     0.09160
H710        H  0.10766640  0.84319634  0.81709109     0.08240
N711        N  0.01390179  0.74498584  0.78023418    -0.35590
N712        N  0.99821632  0.71883065  0.78421362    -0.27770
C713        C  0.97909561  0.70106835  0.77716647    -0.03010
C714        C  0.98295657  0.71716740  0.76845959     0.05600
C715        C  0.00516071  0.74479180  0.77072604     0.03690
H716        H  0.96311410  0.67846264  0.77838333     0.08800
H717        H  0.01445715  0.76352208  0.76580246     0.07630
C718        C  0.89310025  0.68257304  0.71700727     0.03660
C719        C  0.90969825  0.68144609  0.70897976    -0.12490
C720        C  0.93649464  0.68312435  0.71090015     0.01160
C721        C  0.94672924  0.68650963  0.72089268    -0.11020
C722        C  0.93069214  0.68870013  0.72887910     0.03650
C723        C  0.90397863  0.68665242  0.72690550    -0.10440
H724        H  0.90145438  0.67849961  0.70130850     0.09250
H725        H  0.96764414  0.68854347  0.72241810     0.06780
H726        H  0.89165274  0.68839529  0.73311490     0.06620
C727        C  0.30405155  0.09796762  0.71619592     0.03660
C728        C  0.30190936  0.08770773  0.72609237    -0.12490
C729        C  0.30464841  0.06336090  0.72808563     0.01160
C730        C  0.30937412  0.04890722  0.72006359    -0.11020
C731        C  0.31108512  0.05856298  0.71005938     0.03650
C732        C  0.30903749  0.08357505  0.70821575    -0.10440
H733        H  0.29823133  0.09881612  0.73231167     0.09250
H734        H  0.31040699  0.02941832  0.72157028     0.06780
H735        H  0.31089845  0.09161514  0.70057304     0.06620
C736        C  0.43398560  0.98111376  0.95120986     0.03660
C737        C  0.42353480  0.97743800  0.94126057    -0.12490
C738        C  0.39680831  0.97527349  0.93918190     0.01160
C739        C  0.38032697  0.97689402  0.94713710    -0.11020
C740        C  0.39020853  0.98005299  0.95718168     0.03650
C741        C  0.41702802  0.98184496  0.95918264    -0.10440
H742        H  0.43629018  0.97626049  0.93508761     0.09250
H743        H  0.35942562  0.97478854  0.94552748     0.06780
H744        H  0.42510453  0.98473139  0.96687565     0.06620
C745        C  0.02169792  0.56567664  0.95026931     0.03660
C746        C  0.01523190  0.57941356  0.95812089    -0.12490
C747        C  0.01418439  0.60495075  0.95623651     0.01160
C748        C  0.01879828  0.61611023  0.94638177    -0.11020
C749        C  0.02494617  0.60234529  0.93852420     0.03650
C750        C  0.02666054  0.57744954  0.94049936    -0.10440
H751        H  0.01184901  0.57076211  0.96572218     0.09250
H752        H  0.01779973  0.63560062  0.94482881     0.06780
H753        H  0.03154894  0.56702924  0.93435749     0.06620
C754        C  0.29469901  0.99900915  0.00062931     0.03660
C755        C  0.30513953  0.99338083  0.99161577    -0.12490
C756        C  0.33135121  0.99315200  0.99159003     0.01160
C757        C  0.34756797  0.99963922  0.00052707    -0.11020
C758        C  0.33785693  0.00584521  0.00951003     0.03650
C759        C  0.31117323  0.00510173  0.00957732    -0.10440
H760        H  0.29255605  0.98846525  0.98470256     0.09250
H761        H  0.36798514  0.99982055  0.00049433     0.06780
H762        H  0.30360436  0.00993017  0.01652069     0.06620
C763        C  0.36779400  0.03197808  0.33277820     0.03660
C764        C  0.35611684  0.01663621  0.34185781    -0.12490
C765        C  0.33066210  0.98932555  0.34171333     0.01160
C766        C  0.31657244  0.97768879  0.33252364    -0.11020
C767        C  0.32753096  0.99253917  0.32345240     0.03650
C768        C  0.35306313  0.01979313  0.32358849    -0.10440
H769        H  0.36675536  0.02581606  0.34901635     0.09250
H770        H  0.29639513  0.95705308  0.33246880     0.06780
H771        H  0.36171039  0.03113146  0.31652636     0.06620
C772        C  0.03431755  0.36618512  0.66686439     0.03660
C773        C  0.01799747  0.35546971  0.65786518    -0.12490
C774        C  0.99133996  0.32932862  0.65787739     0.01160
C775        C  0.98139297  0.31345058  0.66681051    -0.11020
C776        C  0.99727451  0.32338578  0.67579090     0.03650
C777        C  0.02352382  0.35001110  0.67584932    -0.10440
H778        H  0.02582746  0.36748734  0.65087739     0.09250
H779        H  0.96087065  0.29315693  0.66678094     0.06780
H780        H  0.03537593  0.35807899  0.68288539     0.06620
N781        N  0.35708434  0.31612832  0.14713242    -0.26760
N782        N  0.36691618  0.30178104  0.15243306    -0.34620
C783        C  0.35504338  0.29630914  0.16166293     0.01580
C784        C  0.33654645  0.30733197  0.16231578     0.07610
C785        C  0.33820791  0.31964115  0.15292540    -0.05490
H786        H  0.35661211  0.28180038  0.16701749     0.08270
H787        H  0.32445996  0.32769835  0.15016108     0.09470
Cu788      Cu  0.38730378  0.28056346  0.14659701     0.44170
Cu789      Cu  0.36598591  0.32557964  0.13174865     0.41990
Cu790      Cu  0.39272787  0.28111197  0.12032359     0.43880
N791        N  0.39589526  0.25170795  0.13896255    -0.34140
N792        N  0.39736915  0.25176874  0.12900531    -0.28400
C793        C  0.40082034  0.22962149  0.12592251    -0.04500
C794        C  0.40139903  0.21474295  0.13438513     0.07720
C795        C  0.39820318  0.22929006  0.14254752     0.01510
H796        H  0.40197037  0.22431506  0.11808913     0.09160
H797        H  0.39667767  0.22347887  0.15045055     0.08240
N798        N  0.38989723  0.31343328  0.11289055    -0.35590
N799        N  0.38000514  0.32976035  0.11674946    -0.27770
C800        C  0.38230609  0.34903038  0.10965930    -0.03010
C801        C  0.39452478  0.34457904  0.10104437     0.05600
C802        C  0.39892782  0.32185314  0.10341517     0.03690
H803        H  0.37644201  0.36557981  0.11080664     0.08800
H804        H  0.40818513  0.31210198  0.09861163     0.07630
N805        N  0.36320973  0.04465771  0.14801707    -0.26760
N806        N  0.37360140  0.06921758  0.15322974    -0.34620
C807        C  0.36198081  0.06339438  0.16250191     0.01580
C808        C  0.34303276  0.03387234  0.16327780     0.07610
C809        C  0.34421803  0.02262117  0.15391399    -0.05490
H810        H  0.36384558  0.07990172  0.16776647     0.08270
H811        H  0.32995050  0.00069131  0.15121977     0.09470
Cu812      Cu  0.39372923  0.11058225  0.14718477     0.44170
Cu813      Cu  0.37123170  0.04312227  0.13257622     0.41990
Cu814      Cu  0.39928927  0.11418696  0.12094280     0.43880
N815        N  0.40066441  0.14710266  0.13935376    -0.34140
N816        N  0.40226996  0.14804886  0.12939781    -0.28400
C817        C  0.40371491  0.17261743  0.12614279    -0.04500
C818        C  0.40281430  0.18786595  0.13449058     0.07720
C819        C  0.40089319  0.17110270  0.14276592     0.01510
H820        H  0.40421206  0.17831743  0.11826691     0.09160
H821        H  0.39852872  0.17534813  0.15061658     0.08240
N822        N  0.39548242  0.07832686  0.11360470    -0.35590
N823        N  0.38472222  0.05202095  0.11749122    -0.27770
C824        C  0.38574557  0.03430070  0.11035191    -0.03010
C825        C  0.39809274  0.05060332  0.10169400     0.05600
C826        C  0.40390363  0.07827504  0.10407788     0.03690
H827        H  0.37885754  0.01159389  0.11147298     0.08800
H828        H  0.41354548  0.09714571  0.09921972     0.07630
N829        N  0.29742386  0.01186287  0.18538650    -0.26760
N830        N  0.28750297  0.02630514  0.18017933    -0.34620
C831        C  0.29957639  0.03233942  0.17098001     0.01580
C832        C  0.31832150  0.02165322  0.17024538     0.07610
C833        C  0.31658589  0.00891115  0.17955619    -0.05490
H834        H  0.29807006  0.04713691  0.16574435     0.08270
H835        H  0.33052059  0.00101805  0.18226792     0.09470
Cu836      Cu  0.26754852  0.04783645  0.18611232     0.44170
Cu837      Cu  0.28879178  0.00188963  0.20078007     0.41990
Cu838      Cu  0.26887590  0.05086277  0.21239171     0.43880
N839        N  0.26252011  0.07881070  0.19390617    -0.34140
N840        N  0.26398502  0.08013718  0.20386530    -0.28400
C841        C  0.26341165  0.10376824  0.20707930    -0.04500
C842        C  0.26157574  0.11818085  0.19870464     0.07720
C843        C  0.26100213  0.10179910  0.19043928     0.01510
H844        H  0.26512775  0.11037123  0.21492116     0.09160
H845        H  0.26092936  0.10691788  0.18252814     0.08240
N846        N  0.27080075  0.01850866  0.22003954    -0.35590
N847        N  0.27749457  0.99981064  0.21605658    -0.27770
C848        C  0.27523798  0.98106225  0.22335442    -0.03010
C849        C  0.26705923  0.98882428  0.23230386     0.05600
C850        C  0.26428192  0.01248147  0.22981935     0.03690
H851        H  0.27934713  0.96327621  0.22225102     0.08800
H852        H  0.25717521  0.02413029  0.23465847     0.07630
N853        N  0.29271696  0.28624760  0.18476910    -0.26760
N854        N  0.28223952  0.26127063  0.17981602    -0.34620
C855        C  0.29325754  0.26635187  0.17045926     0.01580
C856        C  0.31203590  0.29580068  0.16936429     0.07610
C857        C  0.31126548  0.30781776  0.17862154    -0.05490
H858        H  0.29147367  0.24945032  0.16540643     0.08270
H859        H  0.32574254  0.32992686  0.18110309     0.09470
Cu860      Cu  0.26461202  0.22073145  0.18637426     0.44170
Cu861      Cu  0.28634588  0.28882274  0.20029109     0.41990
Cu862      Cu  0.27813093  0.22452877  0.21244660     0.43880
N863        N  0.26364197  0.18665752  0.19417763    -0.34140
N864        N  0.26940846  0.18868364  0.20395035    -0.28400
C865        C  0.26886294  0.16444420  0.20704677    -0.04500
C866        C  0.26280436  0.14635009  0.19876974     0.07720
C867        C  0.25969437  0.16107976  0.19069700     0.01510
H868        H  0.27318532  0.16063398  0.21471957     0.09160
H869        H  0.25545051  0.15404329  0.18287809     0.08240
N870        N  0.27700437  0.25761468  0.22003562    -0.35590
N871        N  0.27854679  0.28078047  0.21578995    -0.27770
C872        C  0.27306362  0.29559448  0.22292979    -0.03010
C873        C  0.26783234  0.28084796  0.23209721     0.05600
C874        C  0.27079208  0.25701977  0.22985889     0.03690
H875        H  0.27192752  0.31494501  0.22140039     0.08800
H876        H  0.26788098  0.23976970  0.23487934     0.07630
C877        C  0.45597812  0.43233545  0.04951410     0.03660
C878        C  0.44908580  0.42145892  0.05939551    -0.12490
C879        C  0.42211801  0.39719666  0.06158915     0.01160
C880        C  0.40180685  0.38346534  0.05381085    -0.11020
C881        C  0.40845487  0.39371213  0.04384470     0.03650
C882        C  0.43547905  0.41845365  0.04175400    -0.10440
H883        H  0.46464204  0.43214746  0.06546048     0.09250
H884        H  0.38100029  0.36453561  0.05549443     0.06780
H885        H  0.44084267  0.42635337  0.03406581     0.06620
C886        C  0.45371625  0.01918909  0.04980410     0.03660
C887        C  0.43575439  0.01798092  0.04182610    -0.12490
C888        C  0.41042846  0.01921018  0.04382358     0.01160
C889        C  0.40362246  0.02220417  0.05386530    -0.11020
C890        C  0.42192044  0.02419289  0.06181922     0.03650
C891        C  0.44673809  0.02252619  0.05975058    -0.10440
H892        H  0.44100998  0.01524225  0.03413268     0.09250
H893        H  0.38464867  0.02398706  0.05546892     0.06780
H894        H  0.46082823  0.02403308  0.06593176     0.06620
C895        C  0.20820152  0.31417413  0.28304887     0.03660
C896        C  0.22597023  0.31610422  0.29122093    -0.12490
C897        C  0.24995369  0.31223939  0.28967152     0.01160
C898        C  0.25572049  0.30599145  0.27992119    -0.11020
C899        C  0.23835458  0.30446933  0.27172675     0.03650
C900        C  0.21479876  0.30866719  0.27329884    -0.10440
H901        H  0.22140831  0.32098833  0.29873258     0.09250
H902        H  0.27431340  0.30330399  0.27863177     0.06780
H903        H  0.20123501  0.30705790  0.26692806     0.06620
C904        C  0.20481416  0.89764971  0.28327728     0.03660
C905        C  0.22463359  0.91108122  0.29126807    -0.12490
C906        C  0.25128925  0.93657179  0.28956256     0.01160
C907        C  0.25834535  0.94806403  0.27979680    -0.11020
C908        C  0.23897699  0.93479171  0.27172053     0.03650
C909        C  0.21218166  0.90970918  0.27353144    -0.10440
H910        H  0.21901926  0.90225368  0.29883772     0.09250
H911        H  0.27920914  0.96732080  0.27847248     0.06780
H912        H  0.19688963  0.89964630  0.26735953     0.06620
N913        N  0.31473168  0.35921714  0.85319033    -0.26760
N914        N  0.30056776  0.36920791  0.84786434    -0.34620
C915        C  0.29581900  0.35791788  0.83850894     0.01580
C916        C  0.30713599  0.33964681  0.83779147     0.07610
C917        C  0.31881402  0.34079411  0.84728384    -0.05490
H918        H  0.28162302  0.35969128  0.83306195     0.08270
H919        H  0.32690118  0.32701061  0.84999812     0.09470
Cu920      Cu  0.27887687  0.38915983  0.85367949     0.44170
Cu921      Cu  0.32344812  0.36740361  0.86868611     0.41990
Cu922      Cu  0.27784535  0.39257451  0.87999760     0.43880
N923        N  0.25006873  0.39782401  0.86123249    -0.34140
N924        N  0.24958571  0.39853186  0.87119940    -0.28400
C925        C  0.22789125  0.40261854  0.87421673    -0.04500
C926        C  0.21384704  0.40441295  0.86570228     0.07720
C927        C  0.22841336  0.40125292  0.85757168     0.01510
H928        H  0.22237532  0.40347851  0.88203573     0.09160
H929        H  0.22318939  0.40064015  0.84962937     0.08240
N930        N  0.31007380  0.39013883  0.88760296    -0.35590
N931        N  0.32696587  0.38094034  0.88377435    -0.27770
C932        C  0.34633010  0.38381245  0.89093611    -0.03010
C933        C  0.34142552  0.39583308  0.89953204     0.05600
C934        C  0.31818921  0.39927531  0.89712382     0.03690
H935        H  0.36327371  0.37853361  0.88986030     0.08800
H936        H  0.30791533  0.40800645  0.90191328     0.07630
N937        N  0.04591348  0.36950416  0.85171282    -0.26760
N938        N  0.07033213  0.37949632  0.84656280    -0.34620
C939        C  0.06445629  0.36698095  0.83739226     0.01580
C940        C  0.03505306  0.34782431  0.83661978     0.07610
C941        C  0.02390920  0.34984195  0.84587768    -0.05490
H942        H  0.08086963  0.36842099  0.83223519     0.08270
H943        H  0.00210049  0.33571137  0.84857446     0.09470
Cu944      Cu  0.11161225  0.39997463  0.85266771     0.44170
Cu945      Cu  0.04460216  0.37870302  0.86708339     0.41990
Cu946      Cu  0.11478619  0.40425742  0.87898453     0.43880
N947        N  0.14773061  0.40619503  0.86058414    -0.34140
N948        N  0.14850184  0.40736819  0.87055220    -0.28400
C949        C  0.17259359  0.40799285  0.87385467    -0.04500
C950        C  0.18770160  0.40697562  0.86552960     0.07720
C951        C  0.17137331  0.40587991  0.85721228     0.01510
H952        H  0.17795150  0.40782771  0.88174252     0.09160
H953        H  0.17555350  0.40351984  0.84935848     0.08240
N954        N  0.07897704  0.39955276  0.88645758    -0.35590
N955        N  0.05319793  0.39060720  0.88237650    -0.27770
C956        C  0.03536759  0.39044685  0.88966062    -0.03010
C957        C  0.05079033  0.39931954  0.89871337     0.05600
C958        C  0.07833380  0.40508582  0.89630833     0.03690
H959        H  0.01282377  0.38391791  0.88850124     0.08800
H960        H  0.09689049  0.41317148  0.90130360     0.07630
N961        N  0.01295247  0.30085028  0.81469778    -0.26760
N962        N  0.02778623  0.29148166  0.81996055    -0.34620
C963        C  0.03387550  0.30403765  0.82912750     0.01580
C964        C  0.02283194  0.32254258  0.82978283     0.07610
C965        C  0.00979258  0.32011791  0.82046011    -0.05490
H966        H  0.04893027  0.30306314  0.83438706     0.08270
H967        H  0.00157965  0.33373347  0.81768145     0.09470
Cu968      Cu  0.04957678  0.27160070  0.81416017     0.44170
Cu969      Cu  0.00267661  0.29154059  0.79930444     0.41990
Cu970      Cu  0.05046816  0.27005045  0.78793288     0.43880
N971        N  0.07995877  0.26583186  0.80636686    -0.34140
N972        N  0.08041155  0.26617314  0.79639812    -0.28400
C973        C  0.10362675  0.26515228  0.79311364    -0.04500
C974        C  0.11868287  0.26416135  0.80145025     0.07720
C975        C  0.10312059  0.26458651  0.80977148     0.01510
H976        H  0.10945879  0.26589430  0.78523819     0.09160
H977        H  0.10885561  0.26526655  0.81766289     0.08240
N978        N  0.01827368  0.27194066  0.78019852    -0.35590
N979        N  0.00016943  0.27951202  0.78405475    -0.27770
C980        C  0.98174291  0.27754755  0.77666113    -0.03010
C981        C  0.98905938  0.26857150  0.76778227     0.05600
C982        C  0.01211647  0.26502017  0.77042646     0.03690
H983        H  0.96450569  0.28243890  0.77765040     0.08800
H984        H  0.02335332  0.25721335  0.76571128     0.07630
N985        N  0.28696524  0.29724015  0.81485124    -0.26760
N986        N  0.26212441  0.28566221  0.81981817    -0.34620
C987        C  0.26707890  0.29601682  0.82930498     0.01580
C988        C  0.29627709  0.31551655  0.83048684     0.07610
C989        C  0.30828541  0.31586632  0.82113446    -0.05490
H990        H  0.25010724  0.29330514  0.83443688     0.08270
H991        H  0.33013738  0.33108335  0.81872871     0.09470
Cu992      Cu  0.22147630  0.26738395  0.81331168     0.44170
Cu993      Cu  0.28960352  0.29181518  0.79922710     0.41990
Cu994      Cu  0.22306162  0.27813701  0.78722975     0.43880
N995        N  0.18687320  0.26574766  0.80568264    -0.34140
N996        N  0.18802904  0.27041532  0.79585922    -0.28400
C997        C  0.16376582  0.26989804  0.79286620    -0.04500
C998        C  0.14656776  0.26499463  0.80126502     0.07720
C999        C  0.16185434  0.26254066  0.80929990     0.01510
H1000       H  0.15936586  0.27352184  0.78518000     0.09160
H1001       H  0.15559810  0.25928882  0.81718111     0.08240
N1002       N  0.25657357  0.27826535  0.77962605    -0.35590
N1003       N  0.28102600  0.28261559  0.78375236    -0.27770
C1004       C  0.29638680  0.27807626  0.77657890    -0.03010
C1005       C  0.28037705  0.27009890  0.76763728     0.05600
C1006       C  0.25551683  0.27082349  0.76989055     0.03690
H1007       H  0.31696793  0.27922799  0.77787483     0.08800
H1008       H  0.23748489  0.26569050  0.76489226     0.07630
C1009       C  0.30319928  0.20533216  0.71617608     0.03660
C1010       C  0.30727343  0.22430472  0.70818006    -0.12490
C1011       C  0.30846291  0.25101805  0.71003653     0.01160
C1012       C  0.30667951  0.25900377  0.72004556    -0.11020
C1013       C  0.30274461  0.24019469  0.72805224     0.03650
C1014       C  0.30074899  0.21339376  0.72608168    -0.10440
H1015       H  0.30909330  0.21807726  0.70052121     0.09250
H1016       H  0.30712959  0.27927282  0.72158189     0.06780
H1017       H  0.29735517  0.19880121  0.73230770     0.06620
C1018       C  0.89603099  0.20795643  0.71682582     0.03660
C1019       C  0.91155796  0.22507628  0.70852690    -0.12490
C1020       C  0.93864463  0.25037807  0.71000061     0.01160
C1021       C  0.95006350  0.25816290  0.71981029    -0.11020
C1022       C  0.93516237  0.24083505  0.72814309     0.03650
C1023       C  0.90819434  0.21570851  0.72656610    -0.10440
H1024       H  0.90216320  0.21924697  0.70101274     0.09250
H1025       H  0.97083732  0.27774820  0.72093895     0.06780
H1026       H  0.89676135  0.20175764  0.73289644     0.06620
C1027       C  0.02024840  0.45695757  0.95013407     0.03660
C1028       C  0.02287130  0.44848030  0.94029558    -0.12490
C1029       C  0.02118608  0.42163718  0.93850847     0.01160
C1030       C  0.01685129  0.40320772  0.94671814    -0.11020
C1031       C  0.01466917  0.41154971  0.95660822     0.03650
C1032       C  0.01584827  0.43829004  0.95825470    -0.10440
H1033       H  0.02689746  0.46317314  0.93405181     0.09250
H1034       H  0.01607751  0.38267236  0.94545006     0.06780
H1035       H  0.01398323  0.44485664  0.96585932     0.06620
C1036       C  0.42831804  0.45813735  0.95134661     0.03660
C1037       C  0.41764641  0.45089949  0.94142139    -0.12490
C1038       C  0.39368517  0.42365982  0.93915508     0.01160
C1039       C  0.37995354  0.40351093  0.94692976    -0.11020
C1040       C  0.39018821  0.41044965  0.95692027     0.03650
C1041       C  0.41477258  0.43764462  0.95906921    -0.10440
H1042       H  0.42829429  0.46640112  0.93537922     0.09250
H1043       H  0.36105811  0.38259741  0.94522935     0.06780
H1044       H  0.42278273  0.44316797  0.96676645     0.06620
C1045       C  0.29390055  0.29675808  0.00032544     0.03660
C1046       C  0.30821871  0.30951018  0.00950828    -0.12490
C1047       C  0.33448794  0.33609754  0.00953613     0.01160
C1048       C  0.34672186  0.34949252  0.00032833    -0.11020
C1049       C  0.33299132  0.33713801  0.99112753     0.03650
C1050       C  0.30632654  0.31097792  0.99115179    -0.10440
H1051       H  0.29896309  0.29879948  0.01661804     0.09250
H1052       H  0.36718463  0.36982478  0.00032063     0.06780
H1053       H  0.29534095  0.30173053  0.98404380     0.06620
C1054       C  0.66126907  0.03257538  0.33400445     0.03660
C1055       C  0.65830970  0.01779972  0.34318042    -0.12490
C1056       C  0.65958008  0.99201533  0.34328045     0.01160
C1057       C  0.66321540  0.98078190  0.33417723    -0.11020
C1058       C  0.66627292  0.99505529  0.32501764     0.03650
C1059       C  0.66472626  0.02063757  0.32491653    -0.10440
H1060       H  0.65596784  0.02676184  0.35025526     0.09250
H1061       H  0.66347696  0.96051147  0.33421363     0.06780
H1062       H  0.66655356  0.03135505  0.31777743     0.06620
C1063       C  0.96252503  0.33278404  0.33374861     0.03660
C1064       C  0.97787544  0.33673700  0.34287496    -0.12490
C1065       C  0.00499513  0.33831760  0.34283141     0.01160
C1066       C  0.01627067  0.33515946  0.33368503    -0.11020
C1067       C  0.00137738  0.33103438  0.32456980     0.03650
C1068       C  0.97438949  0.32965473  0.32462065    -0.10440
H1069       H  0.96916341  0.33938075  0.34994251     0.09250
H1070       H  0.03674099  0.33543637  0.33367748     0.06780
H1071       H  0.96275658  0.32631681  0.31756384     0.06620
C1072       C  0.69934376  0.99915693  0.00031936     0.03660
C1073       C  0.68777480  0.00287277  0.00941666    -0.12490
C1074       C  0.66090078  0.00172978  0.00945556     0.01160
C1075       C  0.64575566  0.99701942  0.00034957    -0.11020
C1076       C  0.65660565  0.99284801  0.99126065     0.03650
C1077       C  0.68360893  0.99425513  0.99124033    -0.10440
H1078       H  0.69952130  0.00637173  0.01645868     0.09250
H1079       H  0.62534644  0.99686213  0.00032342     0.06780
H1080       H  0.69189599  0.99066732  0.98423312     0.06620
N1081       N  0.67820538  0.04287343  0.14789302    -0.26760
N1082       N  0.69206722  0.06710313  0.15330603    -0.34620
C1083       C  0.69742630  0.06071546  0.16256693     0.01580
C1084       C  0.68687819  0.03116304  0.16314142     0.07610
C1085       C  0.67497370  0.02050020  0.15365416    -0.05490
H1086       H  0.71169784  0.07690573  0.16799645     0.08270
H1087       H  0.66740572  0.99872494  0.15081818     0.09470
Cu1088     Cu  0.71320256  0.10895043  0.14764155     0.44170
Cu1089     Cu  0.66884594  0.04219280  0.13242050     0.41990
Cu1090     Cu  0.71092567  0.11402127  0.12145943     0.43880
N1091       N  0.74219505  0.14625340  0.14003201    -0.34140
N1092       N  0.74138818  0.14764374  0.13009049    -0.28400
C1093       C  0.76404913  0.17267250  0.12692636    -0.04500
C1094       C  0.78004789  0.18782515  0.13531391     0.07720
C1095       C  0.76560882  0.17049723  0.14352896     0.01510
H1096       H  0.76899874  0.17882610  0.11907366     0.09160
H1097       H  0.77227627  0.17455945  0.15138145     0.08240
N1098       N  0.67939994  0.07862748  0.11378394    -0.35590
N1099       N  0.66414248  0.05197314  0.11741252    -0.27770
C1100       C  0.64573179  0.03467273  0.11010609    -0.03010
C1101       C  0.64960909  0.05161754  0.10161578     0.05600
C1102       C  0.67108119  0.07922736  0.10427583     0.03690
H1103       H  0.63020636  0.01178191  0.11099655     0.08800
H1104       H  0.68019850  0.09849345  0.09961237     0.07630
N1105       N  0.95201456  0.31950846  0.14807588    -0.26760
N1106       N  0.92781410  0.30527973  0.15336031    -0.34620
C1107       C  0.93407308  0.29937484  0.16255196     0.01580
C1108       C  0.96349581  0.30984644  0.16319573     0.07610
C1109       C  0.97425331  0.32239322  0.15383940    -0.05490
H1110       H  0.91787491  0.28466058  0.16782619     0.08270
H1111       H  0.99594671  0.33002785  0.15104900     0.09470
Cu1112     Cu  0.88626787  0.28367433  0.14747742     0.44170
Cu1113     Cu  0.95267090  0.32915979  0.13267589     0.41990
Cu1114     Cu  0.88251672  0.28175237  0.12115030     0.43880
N1115       N  0.84951430  0.25338491  0.13982959    -0.34140
N1116       N  0.84854783  0.25267617  0.12985988    -0.28400
C1117       C  0.82344961  0.22981888  0.12677038    -0.04500
C1118       C  0.80787322  0.21521322  0.13523939     0.07720
C1119       C  0.82501361  0.23068257  0.14342039     0.01510
H1120       H  0.81748397  0.22381195  0.11893455     0.09160
H1121       H  0.82048595  0.22535104  0.15134759     0.08240
N1122       N  0.91731415  0.31372724  0.11350977    -0.35590
N1123       N  0.94300908  0.33172959  0.11747322    -0.27770
C1124       C  0.95979958  0.35032054  0.11019591    -0.03010
C1125       C  0.94370740  0.34334872  0.10127658     0.05600
C1126       C  0.91697213  0.32007007  0.10374460     0.03690
H1127       H  0.98206666  0.36730403  0.11129919     0.08800
H1128       H  0.89823125  0.30876150  0.09885790     0.07630
N1129       N  0.98507982  0.28580202  0.18526137    -0.26760
N1130       N  0.97057633  0.26140387  0.17997680    -0.34620
C1131       C  0.96495121  0.26763744  0.17073413     0.01580
C1132       C  0.97589864  0.29724462  0.17005766     0.07610
C1133       C  0.98843154  0.30812142  0.17944817    -0.05490
H1134       H  0.95009974  0.25138055  0.16543609     0.08270
H1135       H  0.99632674  0.33001084  0.18222664     0.09470
Cu1136     Cu  0.94846524  0.21981363  0.18586425     0.44170
Cu1137     Cu  0.99449525  0.28692872  0.20071622     0.41990
Cu1138     Cu  0.94692523  0.21731521  0.21222536     0.43880
N1139       N  0.91837154  0.18326264  0.19359267    -0.34140
N1140       N  0.91781607  0.18289972  0.20356466    -0.28400
C1141       C  0.89517098  0.15787544  0.20672753    -0.04500
C1142       C  0.88054289  0.14164282  0.19831116     0.07720
C1143       C  0.89577883  0.15835333  0.19007396     0.01510
H1144       H  0.88939386  0.15235292  0.21457949     0.09160
H1145       H  0.89036351  0.15325178  0.18215627     0.08240
N1146       N  0.97889580  0.25223605  0.21993677    -0.35590
N1147       N  0.99690115  0.27786310  0.21598163    -0.27770
C1148       C  0.01546041  0.29487873  0.22329089    -0.03010
C1149       C  0.00853980  0.27897384  0.23222754     0.05600
C1150       C  0.98525706  0.25211040  0.22972167     0.03690
H1151       H  0.03243115  0.31715193  0.22217715     0.08800
H1152       H  0.97396616  0.23339137  0.23458132     0.07630
N1153       N  0.71008628  0.00916794  0.18538813    -0.26760
N1154       N  0.73435019  0.02294495  0.18011018    -0.34620
C1155       C  0.72830823  0.02869050  0.17085509     0.01580
C1156       C  0.69895908  0.01854625  0.17014559     0.07610
C1157       C  0.68803312  0.00642909  0.17954605    -0.05490
H1158       H  0.74464815  0.04308295  0.16555740     0.08270
H1159       H  0.66636084  0.99914346  0.18228900     0.09470
Cu1160     Cu  0.77584380  0.04419753  0.18603356     0.44170
Cu1161     Cu  0.70915209  0.99980294  0.20085945     0.41990
Cu1162     Cu  0.77944167  0.04594425  0.21241099     0.43880
N1163       N  0.81240901  0.07463242  0.19372115    -0.34140
N1164       N  0.81327764  0.07532381  0.20369301    -0.28400
C1165       C  0.83796061  0.09867335  0.20680116    -0.04500
C1166       C  0.85338203  0.11358598  0.19834705     0.07720
C1167       C  0.83659281  0.09777441  0.19015121     0.01510
H1168       H  0.84366751  0.10485140  0.21464084     0.09160
H1169       H  0.84098661  0.10329804  0.18223187     0.08240
N1170       N  0.74412775  0.01481963  0.22012918    -0.35590
N1171       N  0.71829835  0.99730340  0.21615859    -0.27770
C1172       C  0.70100554  0.97941133  0.22350486    -0.03010
C1173       C  0.71682381  0.98649881  0.23248527     0.05600
C1174       C  0.74404583  0.00887544  0.22996564     0.03690
H1175       H  0.67858395  0.96276013  0.22242736     0.08800
H1176       H  0.76282713  0.01978159  0.23485261     0.07630
C1177       C  0.97420652  0.43262075  0.04993015     0.03660
C1178       C  0.96940562  0.42057492  0.05967393    -0.12490
C1179       C  0.97023941  0.39502897  0.06146307     0.01160
C1180       C  0.97609952  0.38152792  0.05341430    -0.11020
C1181       C  0.98090313  0.39318034  0.04364995     0.03650
C1182       C  0.98023253  0.41894559  0.04194838    -0.10440
H1183       H  0.96471869  0.43097151  0.06587345     0.09250
H1184       H  0.97725522  0.36203486  0.05476914     0.06780
H1185       H  0.98354913  0.42782023  0.03438210     0.06620
C1186       C  0.56144404  0.02008584  0.04983554     0.03660
C1187       C  0.57692054  0.01691373  0.04185595    -0.12490
C1188       C  0.60339549  0.01787181  0.04372583     0.01160
C1189       C  0.61455361  0.02278968  0.05362833    -0.11020
C1190       C  0.59943331  0.02659168  0.06160658     0.03650
C1191       C  0.57297052  0.02521140  0.05965687    -0.10440
H1192       H  0.56807636  0.01310377  0.03425441     0.09250
H1193       H  0.63488583  0.02351351  0.05513844     0.06780
H1194       H  0.56109674  0.02779874  0.06584164     0.06620
C1195       C  0.10142577  0.31601014  0.28317897     0.03660
C1196       C  0.08657907  0.31896238  0.29144152    -0.12490
C1197       C  0.05938392  0.31678907  0.29004177     0.01160
C1198       C  0.04693198  0.31096496  0.28034676    -0.11020
C1199       C  0.06127342  0.30735568  0.27206278     0.03650
C1200       C  0.08853215  0.31002980  0.27354374    -0.10440
H1201       H  0.09630901  0.32323706  0.29890987     0.09250
H1202       H  0.02629547  0.30990333  0.27921295     0.06780
H1203       H  0.09955115  0.30687123  0.26720357     0.06620
C1204       C  0.68629106  0.89754693  0.28383212     0.03660
C1205       C  0.68133274  0.91166763  0.29190830    -0.12490
C1206       C  0.67988219  0.93702149  0.29024383     0.01160
C1207       C  0.68303775  0.94791114  0.28039039    -0.11020
C1208       C  0.68811301  0.93408210  0.27222103     0.03650
C1209       C  0.68975228  0.90893542  0.27402320    -0.10440
H1210       H  0.67913389  0.90323977  0.29950875     0.09250
H1211       H  0.68231987  0.96766931  0.27912141     0.06780
H1212       H  0.69428723  0.89845988  0.26781389     0.06620
C1213       C  0.00006650  0.29813497  0.99989163     0.03660
C1214       C  0.00321047  0.31334714  0.99082100    -0.12490
C1215       C  0.00477622  0.34052634  0.99099230     0.01160
C1216       C  0.00261370  0.35215940  0.00023125    -0.11020
C1217       C  0.99934025  0.33743921  0.00930154     0.03650
C1218       C  0.99787233  0.31032417  0.00911633    -0.10440
H1219       H  0.00451335  0.30416296  0.98364881     0.09250
H1220       H  0.00287344  0.37269145  0.00033786     0.06780
H1221       H  0.99566538  0.29909438  0.01617148     0.06620
C1222       C  0.62840714  0.96251666  0.66722897     0.03660
C1223       C  0.64033253  0.97741617  0.65809454    -0.12490
C1224       C  0.66731017  0.00332703  0.65804137     0.01160
C1225       C  0.68238508  0.01407777  0.66716269    -0.11020
C1226       C  0.67137036  0.99932531  0.67626373     0.03650
C1227       C  0.64414673  0.97383293  0.67630684    -0.10440
H1228       H  0.62909823  0.96848814  0.65100432     0.09250
H1229       H  0.70283777  0.03442585  0.66721029     0.06780
H1230       H  0.63538907  0.96272955  0.68339778     0.06620
C1231       C  0.96228748  0.62841658  0.33355450     0.03660
C1232       C  0.97749910  0.63946850  0.34274506    -0.12490
C1233       C  0.00481813  0.66484201  0.34286464     0.01160
C1234       C  0.01641385  0.67983743  0.33384609    -0.11020
C1235       C  0.00167410  0.66955486  0.32465494     0.03650
C1236       C  0.97451460  0.64388202  0.32453472    -0.10440
H1237       H  0.96829372  0.62831399  0.34979006     0.09250
H1238       H  0.03699705  0.70004755  0.33402604     0.06780
H1239       H  0.96332717  0.63561635  0.31738897     0.06620
N1240       N  0.67665019  0.63127474  0.14750574    -0.26760
N1241       N  0.69168250  0.62186461  0.15261798    -0.34620
C1242       C  0.69736093  0.63362920  0.16190951     0.01580
C1243       C  0.68580590  0.65164370  0.16280785     0.07610
C1244       C  0.67294513  0.64980268  0.15349194    -0.05490
H1245       H  0.71244271  0.63251159  0.16711742     0.08270
H1246       H  0.66443650  0.66333617  0.15089559     0.09470
Cu1247     Cu  0.71402972  0.60301298  0.14648664     0.44170
Cu1248     Cu  0.66683564  0.62294569  0.13205430     0.41990
Cu1249     Cu  0.71595343  0.60355545  0.12019377     0.43880
N1250       N  0.74467205  0.59789618  0.13861455    -0.34140
N1251       N  0.74554052  0.59888929  0.12865067    -0.28400
C1252       C  0.76875615  0.59776495  0.12540414    -0.04500
C1253       C  0.78336633  0.59608117  0.13376621     0.07720
C1254       C  0.76754696  0.59620105  0.14205015     0.01510
H1255       H  0.77489589  0.59889551  0.11754807     0.09160
H1256       H  0.77283555  0.59620694  0.14995581     0.08240
N1257       N  0.68353580  0.60566823  0.11263219    -0.35590
N1258       N  0.66487829  0.61220846  0.11668944    -0.27770
C1259       C  0.64627671  0.61036136  0.10938175    -0.03010
C1260       C  0.65408920  0.60263308  0.10034707     0.05600
C1261       C  0.67760788  0.59965237  0.10279465     0.03690
H1262       H  0.62859223  0.61450546  0.11053300     0.08800
H1263       H  0.68928026  0.59280933  0.09787481     0.07630
N1264       N  0.95212654  0.63207305  0.14798976    -0.26760
N1265       N  0.92720722  0.62074236  0.15289844    -0.34620
C1266       C  0.93201765  0.63163327  0.16231306     0.01580
C1267       C  0.96121765  0.65115856  0.16350931     0.07610
C1268       C  0.97336102  0.65099916  0.15423794    -0.05490
H1269       H  0.91496888  0.62911725  0.16736935     0.08270
H1270       H  0.99526265  0.66605744  0.15183604     0.09470
Cu1271     Cu  0.88659742  0.60144409  0.14629004     0.44170
Cu1272     Cu  0.95500145  0.62590105  0.13243622     0.41990
Cu1273     Cu  0.88747092  0.60806858  0.12001477     0.43880
N1274       N  0.85151240  0.59789828  0.13838605    -0.34140
N1275       N  0.85236196  0.60105873  0.12848064    -0.28400
C1276       C  0.82800393  0.60011353  0.12532578    -0.04500
C1277       C  0.81104180  0.59643793  0.13369675     0.07720
C1278       C  0.82657138  0.59515218  0.14188002     0.01510
H1279       H  0.82344485  0.60276500  0.11754862     0.09160
H1280       H  0.82065410  0.59328038  0.14978283     0.08240
N1281       N  0.92223821  0.60989004  0.11271098    -0.35590
N1282       N  0.94710113  0.61598999  0.11697667    -0.27770
C1283       C  0.96367738  0.61286826  0.10992171    -0.03010
C1284       C  0.94814232  0.60415088  0.10087852     0.05600
C1285       C  0.92212357  0.60267944  0.10299797     0.03690
H1286       H  0.98484114  0.61554711  0.11137921     0.08800
H1287       H  0.90399818  0.59625478  0.09790192     0.07630
N1288       N  0.98103710  0.69672183  0.18584879    -0.26760
N1289       N  0.96622795  0.70600980  0.18053916    -0.34620
C1290       C  0.96063614  0.69377641  0.17132341     0.01580
C1291       C  0.97210505  0.67564000  0.17067449     0.07610
C1292       C  0.98474464  0.67782694  0.18006402    -0.05490
H1293       H  0.94595752  0.69499056  0.16594962     0.08270
H1294       H  0.99331187  0.66449378  0.18281941     0.09470
Cu1295     Cu  0.94500798  0.72647180  0.18628962     0.44170
Cu1296     Cu  0.99090380  0.70632912  0.20124897     0.41990
Cu1297     Cu  0.94576100  0.73214263  0.21256779     0.43880
N1298       N  0.91657750  0.73555594  0.19386977    -0.34140
N1299       N  0.91686132  0.73729024  0.20382577    -0.28400
C1300       C  0.89482655  0.74075657  0.20689939    -0.04500
C1301       C  0.87976307  0.74104910  0.19843502     0.07720
C1302       C  0.89410542  0.73769969  0.19027524     0.01510
H1303       H  0.88958312  0.74185875  0.21473372     0.09160
H1304       H  0.88801127  0.73575920  0.18237767     0.08240
N1305       N  0.97646542  0.72747760  0.22035566    -0.35590
N1306       N  0.99363196  0.71869453  0.21647463    -0.27770
C1307       C  0.01145534  0.71934206  0.22387009    -0.03010
C1308       C  0.00467131  0.72858388  0.23278385     0.05600
C1309       C  0.98256051  0.73367486  0.23018563     0.03690
H1310       H  0.02788243  0.71330979  0.22286522     0.08800
H1311       H  0.97199778  0.74201589  0.23500800     0.07630
N1312       N  0.70808185  0.69650339  0.18524604    -0.26760
N1313       N  0.73241653  0.70781685  0.17998006    -0.34620
C1314       C  0.72665191  0.69618520  0.17066895     0.01580
C1315       C  0.69742611  0.67627567  0.16991627     0.07610
C1316       C  0.68627482  0.67688284  0.17933845    -0.05490
H1317       H  0.74317032  0.69882401  0.16533355     0.08270
H1318       H  0.66467729  0.66193122  0.18204029     0.09470
Cu1319     Cu  0.77392360  0.72950069  0.18590427     0.44170
Cu1320     Cu  0.70670183  0.70443207  0.20073144     0.41990
Cu1321     Cu  0.77831448  0.73510698  0.21208987     0.43880
N1322       N  0.81116690  0.73805612  0.19359441    -0.34140
N1323       N  0.81240925  0.73975851  0.20355050    -0.28400
C1324       C  0.83740701  0.74219799  0.20674766    -0.04500
C1325       C  0.85264132  0.74181797  0.19836124     0.07720
C1326       C  0.83541853  0.73918689  0.19011910     0.01510
H1327       H  0.84335569  0.74283274  0.21461228     0.09160
H1328       H  0.83950114  0.73681487  0.18225562     0.08240
N1329       N  0.74243837  0.72984504  0.21961402    -0.35590
N1330       N  0.71594480  0.71827298  0.21583295    -0.27770
C1331       C  0.69839460  0.71892080  0.22306937    -0.03010
C1332       C  0.71501506  0.73185777  0.23167624     0.05600
C1333       C  0.74267486  0.73837081  0.22916124     0.03690
H1334       H  0.67559712  0.71147595  0.22203808     0.08800
H1335       H  0.76178393  0.74870870  0.23392438     0.07630
C1336       C  0.97411407  0.54062567  0.04976556     0.03660
C1337       C  0.97846774  0.55948520  0.04169888    -0.12490
C1338       C  0.97960439  0.58623164  0.04343827     0.01160
C1339       C  0.97753543  0.59438981  0.05339165    -0.11020
C1340       C  0.97335922  0.57570551  0.06146465     0.03650
C1341       C  0.97156746  0.54893574  0.05962026    -0.10440
H1342       H  0.98038133  0.55308813  0.03407417     0.09250
H1343       H  0.97779441  0.61461692  0.05481569     0.06780
H1344       H  0.96802921  0.53445787  0.06589813     0.06620
C1345       C  0.09574824  0.79013501  0.28377096     0.03660
C1346       C  0.08259654  0.77098795  0.29189994    -0.12490
C1347       C  0.05683672  0.74429198  0.29039236     0.01160
C1348       C  0.04490340  0.73649862  0.28064651    -0.11020
C1349       C  0.05814060  0.75509141  0.27241753     0.03650
C1350       C  0.08343867  0.78190983  0.27406057    -0.10440
H1351       H  0.09190977  0.77718173  0.29941671     0.09250
H1352       H  0.02543338  0.71564921  0.27944617     0.06780
H1353       H  0.09350963  0.79658027  0.26776806     0.06620
C1354       C  0.56471964  0.53940748  0.04903617     0.03660
C1355       C  0.57602565  0.54792523  0.05886380    -0.12490
C1356       C  0.60087857  0.57502664  0.06064211     0.01160
C1357       C  0.61443228  0.59367082  0.05244599    -0.11020
C1358       C  0.60361121  0.58546575  0.04258179     0.03650
C1359       C  0.57853794  0.55831664  0.04092032    -0.10440
H1360       H  0.56563210  0.53319162  0.06511513     0.09250
H1361       H  0.63393319  0.61443323  0.05371450     0.06780
H1362       H  0.56997810  0.55178247  0.03332303     0.06620
C1363       C  0.68801626  0.79056013  0.28378647     0.03660
C1364       C  0.68233472  0.77039864  0.29153907    -0.12490
C1365       C  0.68125233  0.74387437  0.28939452     0.01160
C1366       C  0.68496408  0.73730638  0.27940426    -0.11020
C1367       C  0.69009952  0.75710134  0.27160995     0.03650
C1368       C  0.69152094  0.78353202  0.27385413    -0.10440
H1369       H  0.67961029  0.77566008  0.29924029     0.09250
H1370       H  0.68416480  0.71694085  0.27771728     0.06780
H1371       H  0.69518583  0.79867910  0.26779220     0.06620
N1372       N  0.63477932  0.68127036  0.85327694    -0.26760
N1373       N  0.62521527  0.69632198  0.84826748    -0.34620
C1374       C  0.63673726  0.70215804  0.83898484     0.01580
C1375       C  0.65474369  0.69065645  0.83798741     0.07610
C1376       C  0.65314646  0.67764819  0.84723256    -0.05490
H1377       H  0.63537655  0.71724252  0.83384877     0.08270
H1378       H  0.66668966  0.66907954  0.84974541     0.09470
Cu1379     Cu  0.60624753  0.71827778  0.85460604     0.44170
Cu1380     Cu  0.62647108  0.67133944  0.86866283     0.41990
Cu1381     Cu  0.60778340  0.72117767  0.88094382     0.43880
N1382       N  0.60036617  0.74854399  0.86249710    -0.34140
N1383       N  0.60166241  0.74989638  0.87246045    -0.28400
C1384       C  0.59886139  0.77235593  0.87564358    -0.04500
C1385       C  0.59586395  0.78597351  0.86722953     0.07720
C1386       C  0.59696781  0.77038311  0.85899869     0.01510
H1387       H  0.59953791  0.77857924  0.88348646     0.09160
H1388       H  0.59604776  0.77492405  0.85107715     0.08240
N1389       N  0.60764611  0.68686679  0.88804448    -0.35590
N1390       N  0.61404539  0.66819256  0.88383306    -0.27770
C1391       C  0.60940841  0.64756713  0.89070626    -0.03010
C1392       C  0.59936151  0.65365681  0.89956168     0.05600
C1393       C  0.59870105  0.67874980  0.89754241     0.03690
H1394       H  0.61208804  0.62902508  0.88923392     0.08800
H1395       H  0.59179533  0.69021425  0.90256441     0.07630
N1396       N  0.63088729  0.95389544  0.85289301    -0.26760
N1397       N  0.61992058  0.92899031  0.84786310    -0.34620
C1398       C  0.63088920  0.93407558  0.83849718     0.01580
C1399       C  0.64996024  0.96347406  0.83745743     0.07610
C1400       C  0.64959887  0.97544272  0.84677092    -0.05490
H1401       H  0.62842736  0.91715088  0.83331886     0.08810
H1402       H  0.66414786  0.99753289  0.84925378     0.09470
Cu1403     Cu  0.59986613  0.88809283  0.85423225     0.44170
Cu1404     Cu  0.62369106  0.95637479  0.86836021     0.41990
Cu1405     Cu  0.59663854  0.88603604  0.88052255     0.43880
N1406       N  0.59421027  0.85231471  0.86221670    -0.34140
N1407       N  0.59372463  0.85200779  0.87218845    -0.28400
C1408       C  0.59332681  0.82797130  0.87549040    -0.04500
C1409       C  0.59369467  0.81241429  0.86714885     0.07720
C1410       C  0.59421629  0.82841803  0.85883684     0.01510
H1411       H  0.59385025  0.82283852  0.88337347     0.09160
H1412       H  0.59590937  0.82381507  0.85096628     0.08240
N1413       N  0.59993604  0.92208015  0.88755824    -0.35590
N1414       N  0.61041515  0.94814012  0.88348884    -0.27770
C1415       C  0.60916750  0.96610571  0.89047262    -0.03010
C1416       C  0.59694118  0.95021089  0.89921346     0.05600
C1417       C  0.59143394  0.92252410  0.89704578     0.03690
H1418       H  0.61581836  0.98869235  0.88919082     0.08800
H1419       H  0.58197012  0.90392512  0.90202924     0.07630
N1420       N  0.69313857  0.98364256  0.81477530    -0.26760
N1421       N  0.70363697  0.96963653  0.81992383    -0.34620
C1422       C  0.69254563  0.96429419  0.82927471     0.01580
C1423       C  0.67391325  0.97508472  0.83017931     0.07610
C1424       C  0.67462825  0.98707632  0.82080190    -0.05490
H1425       H  0.69470562  0.94999113  0.83456179     0.08270
H1426       H  0.66047190  0.99484712  0.81822335     0.09470
Cu1427     Cu  0.72376401  0.94852785  0.81379803     0.44170
Cu1428     Cu  0.70067434  0.99275980  0.79930481     0.41990
Cu1429     Cu  0.72669285  0.94827697  0.78747659     0.43880
N1430       N  0.73112259  0.91912293  0.80597340    -0.34140
N1431       N  0.73151155  0.91880485  0.79600157    -0.28400
C1432       C  0.73390199  0.89612152  0.79280518    -0.04500
C1433       C  0.73495162  0.88131083  0.80121057     0.07720
C1434       C  0.73314820  0.89645339  0.80945821     0.01510
H1435       H  0.73396623  0.89039833  0.78494473     0.09160
H1436       H  0.73220079  0.89079990  0.81735886     0.08240
N1437       N  0.72368705  0.98069088  0.78020112    -0.35590
N1438       N  0.71387178  0.99694405  0.78418774    -0.27770
C1439       C  0.71588099  0.01624023  0.77715369    -0.03010
C1440       C  0.72800068  0.01198027  0.76848338     0.05600
C1441       C  0.73245630  0.98922936  0.77071162     0.03690
H1442       H  0.70992046  0.03269975  0.77836249     0.08800
H1443       H  0.74155220  0.97954324  0.76580136     0.07630
N1444       N  0.69822844  0.71176479  0.81540691    -0.26760
N1445       N  0.70894754  0.73672199  0.82039107    -0.34620
C1446       C  0.69790212  0.73165868  0.82974363     0.01580
C1447       C  0.67896383  0.70223398  0.83081498     0.07610
C1448       C  0.67957672  0.69021434  0.82154147    -0.05490
H1449       H  0.70008728  0.74859235  0.83486363     0.08270
H1450       H  0.66510806  0.66809608  0.81906744     0.09470
Cu1451     Cu  0.72833062  0.77755547  0.81396256     0.44170
Cu1452     Cu  0.70522682  0.70916474  0.79993636     0.41990
Cu1453     Cu  0.72739544  0.77830082  0.78763484     0.43880
N1454       N  0.73346052  0.81324510  0.80602896    -0.34140
N1455       N  0.73252085  0.81307670  0.79606013    -0.28400
C1456       C  0.73377932  0.83757528  0.79282978    -0.04500
C1457       C  0.73537071  0.85391933  0.80121426     0.07720
C1458       C  0.73510415  0.83787810  0.80948147     0.01510
H1459       H  0.73262053  0.84257841  0.78497604     0.09160
H1460       H  0.73502430  0.84315753  0.81739094     0.08240
N1461       N  0.72504481  0.74284520  0.78048624    -0.35590
N1462       N  0.71695358  0.71735201  0.78467405    -0.27770
C1463       C  0.71934122  0.70006194  0.77768636    -0.03010
C1464       C  0.72971548  0.71578754  0.76878509     0.05600
C1465       C  0.73293806  0.74267725  0.77089506     0.03690
H1466       H  0.71484024  0.67814752  0.77908753     0.08800
H1467       H  0.74070338  0.76104624  0.76584258     0.07630
C1468       C  0.78672442  0.10121282  0.71724049     0.03660
C1469       C  0.76865500  0.08495435  0.70916097    -0.12490
C1470       C  0.74278969  0.05860573  0.71098550     0.01160
C1471       C  0.73541785  0.04852531  0.72095811    -0.11020
C1472       C  0.75374432  0.06430422  0.72902495     0.03650
C1473       C  0.77923139  0.09052910  0.72711937    -0.10440
H1474       H  0.77429143  0.09314502  0.70151374     0.09250
H1475       H  0.71599327  0.02789055  0.72241009     0.06780
H1476       H  0.79339956  0.10264480  0.73337828     0.06620
C1477       C  0.78602915  0.68292226  0.71723248     0.03660
C1478       C  0.76818056  0.68196334  0.70925584    -0.12490
C1479       C  0.74304113  0.68349578  0.71125781     0.01160
C1480       C  0.73623842  0.68649980  0.72128483    -0.11020
C1481       C  0.75441875  0.68824187  0.72923103     0.03650
C1482       C  0.77912457  0.68635711  0.72718914    -0.10440
H1483       H  0.77340317  0.67926373  0.70155271     0.09250
H1484       H  0.71737290  0.68848679  0.72287986     0.06780
H1485       H  0.79319897  0.68787470  0.73337653     0.06620
C1486       C  0.54183383  0.98246801  0.95112998     0.03660
C1487       C  0.55984700  0.98339128  0.95903836    -0.12490
C1488       C  0.58512202  0.98218201  0.95693126     0.01160
C1489       C  0.59184607  0.97949301  0.94685272    -0.11020
C1490       C  0.57343081  0.97766312  0.93895901     0.03650
C1491       C  0.54867890  0.97937837  0.94113561    -0.10440
H1492       H  0.55463398  0.98581689  0.96677195     0.09250
H1493       H  0.61078351  0.97770569  0.94517989     0.06780
H1494       H  0.53450711  0.97803945  0.93500922     0.06620
C1495       C  0.53524870  0.56621291  0.95107208     0.03660
C1496       C  0.54222122  0.57610539  0.94108221    -0.12490
C1497       C  0.56904144  0.60042441  0.93881518     0.01160
C1498       C  0.58897001  0.61533944  0.94658477    -0.11020
C1499       C  0.58212563  0.60613568  0.95665036     0.03650
C1500       C  0.55527364  0.58128535  0.95883970    -0.10440
H1501       H  0.52681931  0.56476494  0.93503024     0.09250
H1502       H  0.60924461  0.63483801  0.94482922     0.06780
H1503       H  0.54981403  0.57391413  0.96658071     0.06620
C1504       C  0.69968972  0.70170529  0.99972158     0.03660
C1505       C  0.68394262  0.69093862  0.99060844    -0.12490
C1506       C  0.65714558  0.66494927  0.99052077     0.01160
C1507       C  0.64683545  0.64890850  0.99941233    -0.11020
C1508       C  0.66238773  0.65870250  0.00845432     0.03650
C1509       C  0.68851896  0.68538227  0.00865798    -0.10440
H1510       H  0.69230130  0.70272887  0.98360878     0.09250
H1511       H  0.62633735  0.62858863  0.99930382     0.06780
H1512       H  0.70008290  0.69329854  0.01575865     0.06620
C1513       C  0.59163793  0.63085657  0.97341453    -0.20770
C1514       C  0.60229095  0.62331741  0.96492922    -0.08820
C1515       C  0.63200952  0.63227332  0.96448173     0.30040
C1516       C  0.65035989  0.64741733  0.97261158    -0.20780
C1517       C  0.63929949  0.65373155  0.98126568    -0.08830
C1518       C  0.60992526  0.64598286  0.98149648     0.30050
F1519       F  0.59881852  0.65256798  0.98965936    -0.19350
H1520       H  0.56901092  0.62481257  0.97381280     0.18410
H1521       H  0.67286345  0.65297391  0.97235929     0.18420
F1522       F  0.64297164  0.62506913  0.95643761    -0.19340
C1523       C  0.76008093  0.72865387  0.75332408    -0.20770
C1524       C  0.73715339  0.70728484  0.75907316    -0.08820
C1525       C  0.72067588  0.67895727  0.75509770     0.30040
C1526       C  0.72639965  0.67264857  0.74535321    -0.20780
C1527       C  0.74891045  0.69432238  0.73959816    -0.08830
C1528       C  0.76603684  0.72222895  0.74370221     0.30050
F1529       F  0.78797205  0.74348910  0.73826061    -0.19350
H1530       H  0.77332210  0.75053800  0.75624985     0.18410
H1531       H  0.71313377  0.65098006  0.74224720     0.18420
F1532       F  0.69826489  0.65782921  0.76039240    -0.19340
C1533       C  0.76761011  0.04739213  0.74437585    -0.20770
C1534       C  0.74746108  0.05259561  0.73939440    -0.08820
C1535       C  0.72164458  0.04634038  0.74433041     0.30040
C1536       C  0.71590265  0.03441525  0.75406872    -0.20780
C1537       C  0.73555721  0.02804572  0.75885655    -0.08830
C1538       C  0.76168712  0.03503038  0.75398111     0.30050
F1539       F  0.78154531  0.02990060  0.75850620    -0.19350
H1540       H  0.78769762  0.05228592  0.74069938     0.18410
H1541       H  0.69566472  0.02913193  0.75770578     0.18420
F1542       F  0.70209760  0.05177091  0.73972971    -0.19340
C1543       C  0.56421998  0.94014263  0.91383415    -0.20770
C1544       C  0.59011433  0.95937928  0.90887815    -0.08820
C1545       C  0.61004439  0.98555077  0.91368430     0.30040
C1546       C  0.60456108  0.99162091  0.92349940    -0.20780
C1547       C  0.57887421  0.97201524  0.92848803    -0.08830
C1548       C  0.55847750  0.94646738  0.92350660     0.30050
F1549       F  0.53353983  0.92704112  0.92817484    -0.19350
H1550       H  0.54855127  0.91988527  0.91025370     0.18410
H1551       H  0.62042016  0.01146474  0.92725139     0.18420
F1552       F  0.63540680  0.00440406  0.90913919    -0.19340
C1553       C  0.56830633  0.63812586  0.91490011    -0.20770
C1554       C  0.58997925  0.63718305  0.90913481    -0.08820
C1555       C  0.60352202  0.62231025  0.91298052     0.30040
C1556       C  0.59639375  0.60992997  0.92263802    -0.20780
C1557       C  0.57531897  0.61171829  0.92843329    -0.08830
C1558       C  0.56093752  0.62542596  0.92443950     0.30050
F1559       F  0.54055397  0.62748910  0.92994459    -0.19350
H1560       H  0.55722486  0.64905731  0.91207480     0.18410
H1561       H  0.60757223  0.59930926  0.92566708     0.18420
F1562       F  0.62458082  0.62099122  0.90766748    -0.19340
C1563       C  0.62634923  0.59328315  0.02555240    -0.20770
C1564       C  0.61953195  0.60473367  0.03400386    -0.08820
C1565       C  0.62882731  0.63466449  0.03429914     0.30040
C1566       C  0.64413344  0.65256205  0.02616717    -0.20780
C1567       C  0.65021583  0.64087038  0.01762174    -0.08830
C1568       C  0.64159459  0.61114206  0.01743989     0.30050
F1569       F  0.64777628  0.59936847  0.00935888    -0.19350
H1570       H  0.61996208  0.57046442  0.02525826     0.18410
H1571       H  0.65020930  0.67530477  0.02635957     0.18420
F1572       F  0.62209130  0.64636012  0.04225822    -0.19340
C1573       C  0.72638415  0.76484753  0.24641478    -0.20770
C1574       C  0.70665443  0.73889868  0.24146507    -0.08820
C1575       C  0.68072413  0.71928021  0.24634372     0.30040
C1576       C  0.67529924  0.72521064  0.25618705    -0.20780
C1577       C  0.69537599  0.75098371  0.26116389    -0.08830
C1578       C  0.72080596  0.77096124  0.25613356     0.30050
F1579       F  0.74082313  0.79589692  0.26077375    -0.19350
H1580       H  0.74645488  0.78033661  0.24278662     0.18410
H1581       H  0.65551192  0.70966724  0.25995248     0.18420
F1582       F  0.66139962  0.69384342  0.24182343    -0.19340
C1583       C  0.04800445  0.74351522  0.24392420    -0.20770
C1584       C  0.01820480  0.73328766  0.24291514    -0.08820
C1585       C  0.00160369  0.72906932  0.25168634     0.30040
C1586       C  0.01475556  0.73590642  0.26119595    -0.20780
C1587       C  0.04467496  0.74699771  0.26221897    -0.08830
C1588       C  0.06123129  0.75046716  0.25348682     0.30050
F1589       F  0.09008833  0.76030714  0.25419665    -0.19350
H1590       H  0.06119803  0.74686615  0.23728929     0.18410
H1591       H  0.00152355  0.73300481  0.26778538     0.18420
F1592       F  0.97251864  0.71801911  0.25112197    -0.19340
C1593       C  0.93339514  0.57488108  0.08499605    -0.20770
C1594       C  0.95573233  0.59602136  0.09109783    -0.08820
C1595       C  0.98438942  0.60989470  0.08747472     0.30040
C1596       C  0.99021827  0.60333942  0.07777459    -0.20780
C1597       C  0.96765953  0.58257568  0.07169974    -0.08830
C1598       C  0.93927766  0.56811915  0.07541836     0.30050
F1599       F  0.91715169  0.54787410  0.06967165    -0.19350
H1600       H  0.91120124  0.56351580  0.08762705     0.18410
H1601       H  0.01225740  0.61450629  0.07497676     0.18420
F1602       F  0.00651126  0.63051370  0.09310158    -0.19340
C1603       C  0.61038200  0.58602381  0.08920368    -0.20770
C1604       C  0.64040321  0.59748827  0.09022318    -0.08820
C1605       C  0.65721615  0.60260935  0.08144848     0.30040
C1606       C  0.64412162  0.59534281  0.07194697    -0.20780
C1607       C  0.61405326  0.58317994  0.07089142    -0.08830
C1608       C  0.59722440  0.57882959  0.07962323     0.30050
F1609       F  0.56818702  0.56794428  0.07890230    -0.19350
H1610       H  0.59700535  0.58197666  0.09583608     0.18410
H1611       H  0.65761045  0.59885757  0.06538180     0.18420
F1612       F  0.68647472  0.61501157  0.08198285    -0.19340
C1613       C  0.99913455  0.69460351  0.30901734    -0.20770
C1614       C  0.01497764  0.68641794  0.31532894    -0.08820
C1615       C  0.04441367  0.69667003  0.31317816     0.30040
C1616       C  0.05790856  0.71560165  0.30510955    -0.20780
C1617       C  0.04226395  0.72431568  0.29894413    -0.08830
C1618       C  0.01261609  0.71340822  0.30088814     0.30050
F1619       F  0.99699171  0.72184080  0.29516746    -0.19350
H1620       H  0.97658265  0.68726727  0.31060443     0.18410
H1621       H  0.08059018  0.72332688  0.30361741     0.18420
F1622       F  0.06012965  0.68831822  0.31888622    -0.19340
C1623       C  0.67644574  0.01648937  0.69422054    -0.20770
C1624       C  0.68870137  0.01133298  0.68563455    -0.08820
C1625       C  0.71839741  0.02016083  0.68572187     0.30040
C1626       C  0.73572243  0.03520563  0.69402812    -0.20780
C1627       C  0.72375888  0.04141165  0.70245611    -0.08830
C1628       C  0.69379566  0.03141549  0.70258123     0.30050
F1629       F  0.68158351  0.03735651  0.71056201    -0.19350
H1630       H  0.65369432  0.01006011  0.69427757     0.18410
H1631       H  0.75859983  0.04214883  0.69386921     0.18420
F1632       F  0.73070765  0.01443545  0.67771266    -0.19340
C1633       C  0.71277848  0.87040906  0.28172793    -0.20770
C1634       C  0.68869475  0.87130443  0.28552889    -0.08820
C1635       C  0.66626340  0.84637878  0.29018502     0.30040
C1636       C  0.66698683  0.82036862  0.29026621    -0.20780
C1637       C  0.69009644  0.81900597  0.28574720    -0.08830
C1638       C  0.71361740  0.84460437  0.28188452     0.30050
F1639       F  0.73693071  0.84433337  0.27789516    -0.19350
H1640       H  0.73058008  0.88956115  0.27832972     0.18410
H1641       H  0.64868728  0.80089239  0.29328379     0.18420
F1642       F  0.64271998  0.84658215  0.29396900    -0.19340
C1643       C  0.94861840  0.46064304  0.05217227    -0.20770
C1644       C  0.97233239  0.45920357  0.04825891    -0.08820
C1645       C  0.99492818  0.48394624  0.04357063     0.30040
C1646       C  0.99463842  0.51017935  0.04350297    -0.20780
C1647       C  0.97188219  0.51201494  0.04810268    -0.08830
C1648       C  0.94830829  0.48672559  0.05208368     0.30050
F1649       F  0.92536255  0.48750267  0.05617256    -0.19350
H1650       H  0.93067112  0.44167720  0.05560046     0.18410
H1651       H  0.01296039  0.52944772  0.04038498     0.18420
F1652       F  0.01820545  0.48335330  0.03971928    -0.19340
C1653       C  0.97248948  0.33480852  0.02509486    -0.20770
C1654       C  0.99655444  0.35057861  0.01881243    -0.08820
C1655       C  0.01617392  0.38001081  0.02105847     0.30040
C1656       C  0.01100621  0.39369443  0.02916264    -0.20780
C1657       C  0.98645474  0.37821298  0.03524363    -0.08830
C1658       C  0.96740603  0.34847876  0.03325316     0.30050
F1659       F  0.94317059  0.33303524  0.03889666    -0.19350
H1660       H  0.95695749  0.31225444  0.02341357     0.18410
H1661       H  0.02617089  0.41644696  0.03069547     0.18420
F1662       F  0.04019547  0.39560198  0.01532705    -0.19340
C1663       C  0.68783538  0.94332311  0.24364193    -0.20770
C1664       C  0.70769260  0.97318064  0.24262719    -0.08820
C1665       C  0.71992472  0.99007906  0.25141805     0.30040
C1666       C  0.71310556  0.97719572  0.26094332    -0.20780
C1667       C  0.69390980  0.94723941  0.26198228    -0.08830
C1668       C  0.68107782  0.93035954  0.25322604     0.30050
F1669       F  0.66185328  0.90143883  0.25393146    -0.19350
H1670       H  0.67810943  0.92987671  0.23699909     0.18410
H1671       H  0.72335376  0.99068262  0.26753922     0.18420
F1672       F  0.73827490  0.01921934  0.25086512    -0.19340
C1673       C  0.00605686  0.27285213  0.25095813    -0.20770
C1674       C  0.02231374  0.28757849  0.24237315    -0.08820
C1675       C  0.05157893  0.30914884  0.24365536     0.30040
C1676       C  0.06410778  0.31559842  0.25332393    -0.20780
C1677       C  0.04776681  0.30070130  0.26186665    -0.08830
C1678       C  0.01858176  0.27914478  0.26057229     0.30050
F1679       F  0.00235358  0.26340929  0.26855372    -0.19350
H1680       H  0.98347636  0.25622207  0.25027002     0.18410
H1681       H  0.08665714  0.33228849  0.25414127     0.18420
F1682       F  0.06841145  0.32331556  0.23558986    -0.19340
C1683       C  0.97828111  0.39901502  0.08024309    -0.20770
C1684       C  0.96419816  0.38193630  0.07167415    -0.08820
C1685       C  0.94401617  0.35226371  0.07292497     0.30040
C1686       C  0.93813922  0.33998698  0.08254156    -0.20780
C1687       C  0.95206103  0.35694427  0.09115237    -0.08830
C1688       C  0.97238515  0.38666441  0.08991539     0.30050
F1689       F  0.98573894  0.40401960  0.09803117    -0.19350
H1690       H  0.99388268  0.42195303  0.07943445     0.18410
H1691       H  0.92247198  0.31704622  0.08322668     0.18420
F1692       F  0.92921273  0.33528165  0.06488018    -0.19340
C1693       C  0.62829203  0.06319708  0.08688860    -0.20770
C1694       C  0.63443690  0.04343342  0.09175440    -0.08820
C1695       C  0.62818090  0.01753374  0.08674629     0.30040
C1696       C  0.61691272  0.01213994  0.07688428    -0.20780
C1697       C  0.61117406  0.03216924  0.07201236    -0.08830
C1698       C  0.61654004  0.05755762  0.07715369     0.30050
F1699       F  0.61130661  0.07736494  0.07262386    -0.19350
H1700       H  0.63285118  0.08325177  0.09061436     0.18410
H1701       H  0.61267545  0.99235496  0.07303101     0.18420
F1702       F  0.63420871  0.99817349  0.09117266    -0.19340
C1703       C  0.65167008  0.00493167  0.97335532    -0.20770
C1704       C  0.63931148  0.98742899  0.98189779    -0.08820
C1705       C  0.60949209  0.96676013  0.98183697     0.30040
C1706       C  0.59214250  0.96489009  0.97362997    -0.20780
C1707       C  0.60420275  0.98328036  0.96527797    -0.08830
C1708       C  0.63428789  0.00292173  0.96509234     0.30050
F1709       F  0.64659495  0.02126166  0.95717946    -0.19350
H1710       H  0.67452329  0.02111093  0.97328615     0.18410
H1711       H  0.56915225  0.94919633  0.97382659     0.18420
F1712       F  0.59705959  0.94866788  0.98980865    -0.19340
C1713       C  0.64853405  0.03238520  0.03372311    -0.20770
C1714       C  0.61891107  0.01286730  0.03538531    -0.08820
C1715       C  0.60409434  0.98861514  0.02897029     0.30040
C1716       C  0.61836578  0.98460950  0.02084111    -0.20780
C1717       C  0.64763880  0.00469732  0.01889501    -0.08830
C1718       C  0.66284384  0.02843533  0.02551654     0.30050
F1719       F  0.69098419  0.04856696  0.02375683    -0.19350
H1720       H  0.66032726  0.05120329  0.03859502     0.18410
H1721       H  0.60635314  0.96593673  0.01592163     0.18420
F1722       F  0.57580687  0.96867488  0.03059024    -0.19340
C1723       C  0.04409361  0.34893631  0.31321553    -0.20770
C1724       C  0.01487892  0.32852966  0.31512754    -0.08820
C1725       C  0.00000470  0.30474606  0.30851491     0.30040
C1726       C  0.01452157  0.30113204  0.30031633    -0.20780
C1727       C  0.04404076  0.32108055  0.29861973    -0.08830
C1728       C  0.05858250  0.34530738  0.30506548     0.30050
F1729       F  0.08671014  0.36568245  0.30341946    -0.19350
H1730       H  0.05585877  0.36759070  0.31816362     0.18410
H1731       H  0.00290897  0.28231032  0.29543143     0.18420
F1732       F  0.97196778  0.28428897  0.31026371    -0.19340
C1733       C  0.65342860  0.97683683  0.30718182    -0.20770
C1734       C  0.67136861  0.98281407  0.31568667    -0.08820
C1735       C  0.69284318  0.97482231  0.31555823     0.30040
C1736       C  0.69543168  0.96001931  0.30725924    -0.20780
C1737       C  0.67691897  0.95315219  0.29888217    -0.08830
C1738       C  0.65613230  0.96209350  0.29882428     0.30050
F1739       F  0.63767478  0.95550730  0.29088365    -0.19350
H1740       H  0.63663995  0.98262738  0.30717111     0.18410
H1741       H  0.71202610  0.95395649  0.30735705     0.18420
F1742       F  0.71130842  0.98129640  0.32349750    -0.19340
C1743       C  0.47889710  0.48908428  0.95788602    -0.20770
C1744       C  0.45407560  0.48698716  0.95335691    -0.08820
C1745       C  0.45529284  0.51226403  0.94956614     0.30040
C1746       C  0.48153692  0.53849495  0.94943283    -0.20780
C1747       C  0.50691849  0.54007492  0.95317249    -0.08830
C1748       C  0.50521975  0.51549172  0.95781375     0.30050
F1749       F  0.52940538  0.51636353  0.96150308    -0.19350
H1750       H  0.47836548  0.46985969  0.96085911     0.18410
H1751       H  0.48233920  0.55737099  0.94600587     0.18420
F1752       F  0.43132705  0.51125443  0.94557990    -0.19340
C1753       C  0.39015687  0.38146015  0.97169973    -0.20770
C1754       C  0.37478112  0.38957320  0.96514919    -0.08820
C1755       C  0.34488390  0.37820221  0.96667143     0.30040
C1756       C  0.33094031  0.35984021  0.97485677    -0.20780
C1757       C  0.34659723  0.35262130  0.98163035    -0.08830
C1758       C  0.37620657  0.36298782  0.97982866     0.30050
F1759       F  0.39172261  0.35553440  0.98602898    -0.19350
H1760       H  0.41307326  0.38964241  0.97054841     0.18410
H1761       H  0.30822873  0.35235385  0.97617600     0.18420
F1762       F  0.32953087  0.38610749  0.96057426    -0.19340
C1763       C  0.99250298  0.36294955  0.96507905    -0.20770
C1764       C  0.01275640  0.39293102  0.96522022    -0.08820
C1765       C  0.03172442  0.40484522  0.97351077     0.30040
C1766       C  0.02972347  0.38728094  0.98163109    -0.20780
C1767       C  0.00880169  0.35753449  0.98168412    -0.08830
C1768       C  0.99044556  0.34533059  0.97325228     0.30050
F1769       F  0.96964172  0.31679797  0.97312684    -0.19350
H1770       H  0.97777874  0.35332794  0.95873552     0.18410
H1771       H  0.04433937  0.39703845  0.98799811     0.18420
F1772       F  0.05248430  0.43340103  0.97370953    -0.19340
C1773       C  0.81736574  0.15353161  0.72157008    -0.20770
C1774       C  0.81321893  0.12974136  0.71566683    -0.08820
C1775       C  0.83551420  0.13295735  0.70916075     0.30040
C1776       C  0.86217886  0.15911195  0.70911493    -0.20780
C1777       C  0.86680676  0.18216128  0.71556357    -0.08830
C1778       C  0.84381773  0.17947800  0.72152520     0.30050
F1779       F  0.84725206  0.20177355  0.72753318    -0.19350
H1780       H  0.80029022  0.15164353  0.72649894     0.18410
H1781       H  0.87966805  0.16083682  0.70445864     0.18420
F1782       F  0.83223653  0.11028943  0.70340196    -0.19340
C1783       C  0.31524046  0.27485060  0.75404869    -0.20770
C1784       C  0.28682835  0.26105143  0.75783894    -0.08820
C1785       C  0.26418315  0.23941780  0.75192634     0.30040
C1786       C  0.26977676  0.23256913  0.74231359    -0.20780
C1787       C  0.29787070  0.24718264  0.73838496    -0.08830
C1788       C  0.32073586  0.26812355  0.74432907     0.30050
F1789       F  0.34823340  0.28200306  0.74071556    -0.19350
H1790       H  0.33298022  0.29144652  0.75847667     0.18410
H1791       H  0.25205085  0.21606529  0.73784504     0.18420
F1792       F  0.23661705  0.22455697  0.75545709    -0.19340
C1793       C  0.97817211  0.25809876  0.73943996    -0.20770
C1794       C  0.94855141  0.24852784  0.73837138    -0.08820
C1795       C  0.93240978  0.24667557  0.74705992     0.30040
C1796       C  0.94575701  0.25383184  0.75660390    -0.20780
C1797       C  0.97531986  0.26292324  0.75764485    -0.08830
C1798       C  0.99151161  0.26548765  0.74889866     0.30050
F1799       F  0.02046167  0.27570859  0.74938070    -0.19350
H1800       H  0.99113685  0.25967137  0.73291341     0.18410
H1801       H  0.93284134  0.25178629  0.76319552     0.18420
F1802       F  0.90392380  0.23847102  0.74632898    -0.19340
C1803       C  0.02087747  0.41214586  0.90991430    -0.20770
C1804       C  0.04098558  0.40261068  0.90885150    -0.08820
C1805       C  0.05300011  0.39775812  0.91760574     0.30040
C1806       C  0.04595684  0.40348721  0.92715639    -0.20780
C1807       C  0.02668009  0.41400936  0.92825345    -0.08830
C1808       C  0.01383489  0.41795674  0.91953095     0.30050
F1809       F  0.99446291  0.42732917  0.92029692    -0.19350
H1810       H  0.01127666  0.41592855  0.90329011     0.18410
H1811       H  0.05622487  0.40032871  0.93372162     0.18420
F1812       F  0.07148644  0.38726399  0.91698308    -0.19340
C1813       C  0.36617367  0.38601226  0.91378331    -0.20770
C1814       C  0.35735297  0.40414207  0.90923504    -0.08820
C1815       C  0.36207283  0.42942587  0.91436637     0.30040
C1816       C  0.37445628  0.43583631  0.92399735    -0.20780
C1817       C  0.38207990  0.41708381  0.92873887    -0.08830
C1818       C  0.37823389  0.39226678  0.92352721     0.30050
F1819       F  0.38618605  0.37419832  0.92785611    -0.19350
H1820       H  0.36277450  0.36649953  0.90994374     0.18410
H1821       H  0.37749593  0.45517776  0.92787461     0.18420
F1822       F  0.35481279  0.44806221  0.91006597    -0.19340
C1823       C  0.15112132  0.86997992  0.28101487    -0.20770
C1824       C  0.17619703  0.87121505  0.28493629    -0.08820
C1825       C  0.17381797  0.84640254  0.28965392     0.30040
C1826       C  0.14713986  0.82033161  0.28977341    -0.20780
C1827       C  0.12254531  0.81867113  0.28520634    -0.08830
C1828       C  0.12454167  0.84406182  0.28117169     0.30050
F1829       F  0.10087424  0.84362089  0.27716222    -0.19350
H1830       H  0.15230850  0.88900593  0.27756634     0.18410
H1831       H  0.14605004  0.80104246  0.29294059     0.18420
F1832       F  0.19759341  0.84677050  0.29351342    -0.19340
C1833       C  0.17898101  0.33668603  0.27797891    -0.20770
C1834       C  0.18272976  0.31795360  0.28445017    -0.08820
C1835       C  0.16076229  0.30105444  0.29142932     0.30040
C1836       C  0.13474357  0.30160361  0.29140478    -0.20780
C1837       C  0.13036410  0.31891949  0.28442285    -0.08830
C1838       C  0.15313101  0.33724556  0.27796127     0.30050
F1839       F  0.15003549  0.35514277  0.27142204    -0.19350
H1840       H  0.19583317  0.35025809  0.27267699     0.18410
H1841       H  0.11744331  0.28734390  0.29644628     0.18420
F1842       F  0.16358820  0.28253966  0.29774505    -0.19340
C1843       C  0.48261657  0.99563202  0.05361979    -0.20770
C1844       C  0.47960140  0.01640959  0.04807304    -0.08820
C1845       C  0.50268467  0.03621922  0.04197787     0.30040
C1846       C  0.52907730  0.03637144  0.04205162    -0.20780
C1847       C  0.53256930  0.01684792  0.04821028    -0.08830
C1848       C  0.50880232  0.99579658  0.05369624     0.30050
F1849       F  0.51132916  0.97607828  0.05945158    -0.19350
H1850       H  0.46494210  0.97998185  0.05825520     0.18410
H1851       H  0.54723652  0.05272826  0.03777553     0.18420
F1852       F  0.50044668  0.05669289  0.03658420    -0.19340
C1853       C  0.50969330  0.45952421  0.05156478    -0.20770
C1854       C  0.48468826  0.45828708  0.04756076    -0.08820
C1855       C  0.48715469  0.48300980  0.04275393     0.30040
C1856       C  0.51380420  0.50908518  0.04269548    -0.20780
C1857       C  0.53822448  0.51081208  0.04742934    -0.08830
C1858       C  0.53622713  0.48547811  0.05149544     0.30050
F1859       F  0.55977406  0.48608053  0.05568902    -0.19350
H1860       H  0.50840038  0.44056177  0.05510873     0.18410
H1861       H  0.51495497  0.52836678  0.03949418     0.18420
F1862       F  0.46344020  0.48262846  0.03882731    -0.19340
C1863       C  0.37988147  0.39383718  0.02891747    -0.20770
C1864       C  0.38743048  0.37823851  0.03558204    -0.08820
C1865       C  0.37533688  0.34805860  0.03413580     0.30040
C1866       C  0.35684932  0.33406363  0.02592526    -0.20780
C1867       C  0.35020987  0.34992406  0.01904066    -0.08830
C1868       C  0.36130484  0.37984449  0.02076042     0.30050
F1869       F  0.35444369  0.39562323  0.01446022    -0.19350
H1870       H  0.38857712  0.41697093  0.03000245     0.18410
H1871       H  0.34880175  0.31110268  0.02467798     0.18420
F1872       F  0.38263604  0.33241314  0.04033009    -0.19340
C1873       C  0.24817119  0.26550384  0.24959184    -0.20770
C1874       C  0.25927917  0.28723399  0.24209060    -0.08820
C1875       C  0.26239280  0.31459169  0.24442623     0.30040
C1876       C  0.25498443  0.31992695  0.25404046    -0.20780
C1877       C  0.24482397  0.29836369  0.26149498    -0.08830
C1878       C  0.24124899  0.27105245  0.25919673     0.30050
F1879       F  0.23079793  0.24964505  0.26623801    -0.19350
H1880       H  0.24470042  0.24398262  0.24811516     0.18410
H1881       H  0.25781484  0.34114671  0.25576057     0.18420
F1882       F  0.27333737  0.33652212  0.23761276    -0.19340
C1883       C  0.25849801  0.97828660  0.26063290    -0.20770
C1884       C  0.24650043  0.94811949  0.26153596    -0.08820
C1885       C  0.24233270  0.93137914  0.25274281     0.30040
C1886       C  0.24978129  0.94475342  0.24324106    -0.20780
C1887       C  0.26127463  0.97490023  0.24236408    -0.08830
C1888       C  0.26595156  0.99160183  0.25120269     0.30050
F1889       F  0.27825494  0.02096428  0.25080740    -0.19350
H1890       H  0.26192987  0.99166872  0.26727278     0.18410
H1891       H  0.24602003  0.93146086  0.23655601     0.18420
F1892       F  0.23156565  0.90224747  0.25334124    -0.19340
C1893       C  0.43056398  0.06146587  0.08694600    -0.20770
C1894       C  0.40487761  0.04184336  0.09193395    -0.08820
C1895       C  0.38519134  0.01559340  0.08710981     0.30040
C1896       C  0.39072761  0.00979438  0.07726337    -0.20780
C1897       C  0.41622121  0.02976449  0.07225981    -0.08830
C1898       C  0.43634844  0.05542718  0.07724045     0.30050
F1899       F  0.46111478  0.07516057  0.07255812    -0.19350
H1900       H  0.44608374  0.08176574  0.09053841     0.18410
H1901       H  0.37510264  0.98983539  0.07351181     0.18420
F1902       F  0.36004498  0.99633105  0.09168338    -0.19340
C1903       C  0.42706441  0.36417804  0.08617929    -0.20770
C1904       C  0.40248431  0.36053050  0.09136985    -0.08820
C1905       C  0.38498581  0.37026244  0.08687325     0.30040
C1906       C  0.39147646  0.38234796  0.07716551    -0.20780
C1907       C  0.41577990  0.38542858  0.07194901    -0.08830
C1908       C  0.43379276  0.37665080  0.07659505     0.30050
F1909       F  0.45727040  0.37909090  0.07169214    -0.19350
H1910       H  0.44100241  0.35705676  0.08951242     0.18410
H1911       H  0.37746241  0.38914820  0.07367820     0.18420
F1912       F  0.36093303  0.36683132  0.09162046    -0.19340
C1913       C  0.96643559  0.29948319  0.70206057    -0.20770
C1914       C  0.95503863  0.26923629  0.70140137    -0.08820
C1915       C  0.95982555  0.25742198  0.69258817     0.30040
C1916       C  0.97489355  0.27547773  0.68449277    -0.20780
C1917       C  0.98538184  0.30557809  0.68500489    -0.08830
C1918       C  0.98146878  0.31755698  0.69394070     0.30050
F1919       F  0.99071263  0.34640451  0.69462390    -0.19350
H1920       H  0.96295301  0.30903491  0.70878334     0.18410
H1921       H  0.97793852  0.26585767  0.67770061     0.18420
F1922       F  0.95017524  0.22849772  0.69182908    -0.19340
C1923       C  0.30212962  0.99500052  0.30793693    -0.20770
C1924       C  0.31107220  0.97937237  0.31402469    -0.08820
C1925       C  0.30116474  0.94992957  0.31175086     0.30040
C1926       C  0.28162392  0.93610310  0.30381852    -0.20780
C1927       C  0.27199519  0.95147006  0.29792911    -0.08830
C1928       C  0.28272556  0.98119815  0.29993916     0.30050
F1929       F  0.27346108  0.99652886  0.29444561    -0.19350
H1930       H  0.30918280  0.01753992  0.30965200     0.18410
H1931       H  0.27402138  0.91336984  0.30224640     0.18420
F1932       F  0.31016890  0.93446464  0.31729657    -0.19340
C1933       C  0.34346284  0.99557425  0.02754237    -0.20770
C1934       C  0.35562325  0.01207396  0.01878661    -0.08820
C1935       C  0.38552898  0.03234390  0.01859658     0.30040
C1936       C  0.40311245  0.03488868  0.02682428    -0.20780
C1937       C  0.39120310  0.01749738  0.03542005    -0.08830
C1938       C  0.36106451  0.99817626  0.03580107     0.30050
F1939       F  0.34886360  0.98064943  0.04391443    -0.19350
H1940       H  0.32054294  0.97965927  0.02779363     0.18410
H1941       H  0.42614857  0.05031286  0.02645429     0.18420
F1942       F  0.39778578  0.04939645  0.01037672    -0.19340
C1943       C  0.04696082  0.53731557  0.94812172    -0.20770
C1944       C  0.02335296  0.53901069  0.95201103    -0.08820
C1945       C  0.00031214  0.51420886  0.95649996     0.30040
C1946       C  0.00008583  0.48771935  0.95639487    -0.20780
C1947       C  0.02273403  0.48567288  0.95179918    -0.08830
C1948       C  0.04672020  0.51095294  0.94801591     0.30050
F1949       F  0.06956752  0.50993808  0.94395403    -0.19350
H1950       H  0.06519504  0.55629227  0.94481616     0.18410
H1951       H  0.98148185  0.46845740  0.95938532     0.18420
F1952       F  0.97708751  0.51502213  0.96028965    -0.19340
C1953       C  0.46631822  0.96465240  0.95890735    -0.20770
C1954       C  0.46296219  0.98468455  0.95298964    -0.08820
C1955       C  0.48693586  0.00630994  0.94773445     0.30040
C1956       C  0.51312443  0.00646906  0.94773480    -0.20780
C1957       C  0.51597010  0.98518059  0.95300025    -0.08830
C1958       C  0.49273495  0.96484883  0.95892257     0.30050
F1959       F  0.49484290  0.94390955  0.96405538    -0.19350
H1960       H  0.44801875  0.94782481  0.96299524     0.18410
H1961       H  0.53092280  0.02251048  0.94323820     0.18420
F1962       F  0.48457639  0.02653068  0.94222398    -0.19340
C1963       C  0.34652479  0.00310017  0.97348354    -0.20770
C1964       C  0.34274090  0.98692722  0.98228714    -0.08820
C1965       C  0.35275299  0.96695997  0.98248879     0.30040
C1966       C  0.36765291  0.96444146  0.97422955    -0.20780
C1967       C  0.37262690  0.98155250  0.96558734    -0.08830
C1968       C  0.36138997  0.00052132  0.96519034     0.30050
F1969       F  0.36620952  0.01777468  0.95702966    -0.19350
H1970       H  0.33920659  0.01876656  0.97321801     0.18410
H1971       H  0.37559430  0.94928728  0.97461718     0.18420
F1972       F  0.34848814  0.95019962  0.99075527    -0.19340
C1973       C  0.32330931  0.14832809  0.70947893    -0.20770
C1974       C  0.30119891  0.12389373  0.71441087    -0.08820
C1975       C  0.27781488  0.12549130  0.71859721     0.30040
C1976       C  0.27786123  0.15174817  0.71861210    -0.20780
C1977       C  0.30105715  0.17680911  0.71439136    -0.08830
C1978       C  0.32328537  0.17468393  0.70945375     0.30050
F1979       F  0.34602569  0.19852693  0.70530358    -0.19350
H1980       H  0.34146569  0.14748062  0.70619110     0.18410
H1981       H  0.26024378  0.15281969  0.72226594     0.18420
F1982       F  0.25540384  0.10186259  0.72299012    -0.19340
C1983       C  0.86090276  0.69907871  0.70923233    -0.20770
C1984       C  0.86422681  0.67935150  0.71533694    -0.08820
C1985       C  0.84041522  0.65847806  0.72086599     0.30040
C1986       C  0.81447774  0.65880859  0.72092985    -0.20780
C1987       C  0.81170870  0.67982767  0.71545238    -0.08830
C1988       C  0.83473117  0.69935995  0.70927581     0.30050
F1989       F  0.83269228  0.72000490  0.70391889    -0.19350
H1990       H  0.87907571  0.71533195  0.70493325     0.18410
H1991       H  0.79681078  0.64332119  0.72560550     0.18420
F1992       F  0.84270031  0.63850886  0.72655725    -0.19340
C1993       C  0.96183196  0.72801045  0.75351752    -0.20770
C1994       C  0.96710447  0.70815302  0.75874750    -0.08820
C1995       C  0.95920736  0.68115844  0.75423831     0.30040
C1996       C  0.94729437  0.67477851  0.74447267    -0.20780
C1997       C  0.94253620  0.69493602  0.73923656    -0.08830
C1998       C  0.94944301  0.72141267  0.74388727     0.30050
F1999       F  0.94511727  0.74129727  0.73895843    -0.19350
H2000       H  0.96759019  0.74886763  0.75686546     0.18410
H2001       H  0.94191693  0.65421391  0.74096204     0.18420
F2002       F  0.96428979  0.66162664  0.75903739    -0.19340
C2003       C  0.31546198  0.03624342  0.75334790    -0.20770
C2004       C  0.28853628  0.02713069  0.75794226    -0.08820
C2005       C  0.26778088  0.03142432  0.75285856     0.30040
C2006       C  0.27354708  0.04373090  0.74324900    -0.20780
C2007       C  0.29989374  0.05167345  0.73846060    -0.08830
C2008       C  0.32104433  0.04819441  0.74360399     0.30050
F2009       F  0.34700054  0.05639985  0.73921074    -0.19350
H2010       H  0.33170165  0.03313103  0.75714587     0.18410
H2011       H  0.25711302  0.04649525  0.73942352     0.18420
F2012       F  0.24186363  0.02378175  0.75718739    -0.19340
C2013       C  0.01543037  0.62459902  0.91229538    -0.20770
C2014       C  0.04437442  0.64089523  0.90909532    -0.08820
C2015       C  0.06656801  0.64303203  0.91549517     0.30040
C2016       C  0.05991117  0.63006370  0.92500493    -0.20780
C2017       C  0.03118837  0.61485286  0.92831750    -0.08830
C2018       C  0.00885447  0.61176158  0.92188303     0.30050
F2019       F  0.98080119  0.59639482  0.92489687    -0.19350
H2020       H  0.99800062  0.62250008  0.90749841     0.18410
H2021       H  0.07724773  0.63214720  0.92986023     0.18420
F2022       F  0.09471168  0.65723404  0.91254498    -0.19340
C2023       C  0.36872021  0.93897990  0.91384570    -0.20770
C2024       C  0.36236782  0.95860642  0.90899435    -0.08820
C2025       C  0.36854534  0.98450758  0.91398082     0.30040
C2026       C  0.37981267  0.98996849  0.92384377    -0.20780
C2027       C  0.38565257  0.97001389  0.92871255    -0.08830
C2028       C  0.38049772  0.94470099  0.92357273     0.30050
F2029       F  0.38582341  0.92497701  0.92811985    -0.19350
H2030       H  0.36417794  0.91891531  0.91013017     0.18410
H2031       H  0.38383214  0.00965429  0.92771766     0.18420
F2032       F  0.36230308  0.00371042  0.90954963    -0.19340
C2033       C  0.02244875  0.66363647  0.97467026    -0.20770
C2034       C  0.99879036  0.64775922  0.98111663    -0.08820
C2035       C  0.97932491  0.61822936  0.97894640     0.30040
C2036       C  0.98432453  0.60455968  0.97079478    -0.20780
C2037       C  0.00853325  0.62011795  0.96456844    -0.08830
C2038       C  0.02734890  0.64996993  0.96645358     0.30050
F2039       F  0.05126180  0.66553467  0.96067311    -0.19350
H2040       H  0.03784426  0.68628489  0.97626601     0.18410
H2041       H  0.96932554  0.58171102  0.96935675     0.18420
F2042       F  0.95560750  0.60250336  0.98479957    -0.19340
C2043       C  0.96540528  0.61072663  0.01827376    -0.20770
C2044       C  0.98617985  0.64052357  0.01830293    -0.08820
C2045       C  0.00394382  0.65272282  0.02687627     0.30040
C2046       C  0.00154207  0.63505177  0.03508633    -0.20780
C2047       C  0.98151464  0.60500967  0.03485650    -0.08830
C2048       C  0.96303560  0.59311922  0.02643538     0.30050
F2049       F  0.94241159  0.56452213  0.02613411    -0.19350
H2050       H  0.95116463  0.60095995  0.01181647     0.18410
H2051       H  0.01590076  0.64468513  0.04151966     0.18420
F2052       F  0.02454529  0.68132103  0.02711505    -0.19340
C2053       C  0.30058587  0.02123708  0.68463059    -0.20770
C2054       C  0.32164489  0.01279474  0.68497214    -0.08820
C2055       C  0.33820355  0.01804864  0.69382600     0.30040
C2056       C  0.33443617  0.03258831  0.70202572    -0.20780
C2057       C  0.31409525  0.04203213  0.70152650    -0.08830
C2058       C  0.29669626  0.03557242  0.69281165     0.30050
F2059       F  0.27570230  0.04283967  0.69222240    -0.19350
H2060       H  0.28730142  0.01697507  0.67792767     0.18410
H2061       H  0.34803713  0.03725031  0.70866069     0.18420
F2062       F  0.35897788  0.01047787  0.69435623    -0.19340
C2063       C  0.97944851  0.66009055  0.69423684    -0.20770
C2064       C  0.98437657  0.67761073  0.68570998    -0.08820
C2065       C  0.97527896  0.69831882  0.68584563     0.30040
C2066       C  0.96004391  0.70019796  0.69411048    -0.20780
C2067       C  0.95398840  0.68183420  0.70245170    -0.08830
C2068       C  0.96438056  0.66216067  0.70256546     0.30050
F2069       F  0.95863749  0.64390453  0.71048845    -0.19350
H2070       H  0.98609083  0.64388915  0.69425419     0.18410
H2071       H  0.95277997  0.71591946  0.69398023     0.18420
F2072       F  0.98080409  0.71648455  0.67790354    -0.19340
C2073       C  0.69239426  0.69498177  0.30746275    -0.20770
C2074       C  0.66831194  0.68552599  0.31383271    -0.08820
C2075       C  0.64774114  0.69404121  0.31174334     0.30040
C2076       C  0.65199919  0.71284523  0.30374606    -0.20780
C2077       C  0.67655122  0.72312070  0.29759394    -0.08830
C2078       C  0.69653663  0.71366144  0.29938924     0.30050
F2079       F  0.72075713  0.72363444  0.29365236    -0.19350
H2080       H  0.70862226  0.68894035  0.30901269     0.18410
H2081       H  0.63616376  0.71952475  0.30236728     0.18420
F2082       F  0.62368307  0.68443895  0.31754745    -0.19340
C2083       C  0.28207333  0.34243941  0.30374425    -0.20770
C2084       C  0.27010564  0.31660791  0.29807680    -0.08820
C2085       C  0.27810129  0.29570276  0.30035322     0.30040
C2086       C  0.29709765  0.30035338  0.30840267    -0.20780
C2087       C  0.30828004  0.32584046  0.31425149    -0.08830
C2088       C  0.30107407  0.34711963  0.31172444     0.30050
F2089       F  0.31217088  0.37231267  0.31709606    -0.19350
H2090       H  0.27668328  0.35905372  0.30196973     0.18410
H2091       H  0.30212871  0.28358444  0.31033533     0.18420
F2092       F  0.26657968  0.27031421  0.29508595    -0.19340
C2093       C  0.67685408  0.66064387  0.69467652    -0.20770
C2094       C  0.68932344  0.67835384  0.68618649    -0.08820
C2095       C  0.71910962  0.69914423  0.68632767     0.30040
C2096       C  0.73633327  0.70092579  0.69455938    -0.20780
C2097       C  0.72414739  0.68237400  0.70286028    -0.08830
C2098       C  0.69409811  0.66261436  0.70297191     0.30050
F2099       F  0.68170673  0.64417478  0.71085467    -0.19350
H2100       H  0.65402809  0.64437859  0.69468795     0.18410
H2101       H  0.75930621  0.71670587  0.69443247     0.18420
F2102       F  0.73162239  0.71748050  0.67842086    -0.19340
C2103       C  0.29657627  0.27662141  0.68469178    -0.20770
C2104       C  0.31718330  0.30643243  0.68500974    -0.08820
C2105       C  0.33376712  0.31831307  0.69384032     0.30040
C2106       C  0.33055265  0.30028579  0.70202365    -0.20780
C2107       C  0.31076593  0.27020506  0.70153026    -0.08830
C2108       C  0.29326638  0.25866009  0.69285520     0.30050
F2109       F  0.27280308  0.23004415  0.69227693    -0.19350
H2110       H  0.28330714  0.26713341  0.67800110     0.18410
H2111       H  0.34421404  0.30968654  0.70863161     0.18420
F2112       F  0.35414562  0.34695943  0.69434614    -0.19340
C2113       C  0.96508222  0.29770335  0.63173817    -0.20770
C2114       C  0.93536524  0.28844394  0.63242797    -0.08820
C2115       C  0.92491265  0.29504455  0.64120770     0.30040
C2116       C  0.94364986  0.30958848  0.64925737    -0.20780
C2117       C  0.97311578  0.31792510  0.64870977    -0.08830
C2118       C  0.98387192  0.31236206  0.63980752     0.30050
F2119       F  0.01212894  0.31970236  0.63911695    -0.19350
H2120       H  0.97360878  0.29289471  0.62503393     0.18410
H2121       H  0.93504780  0.31395792  0.65603885     0.18420
F2122       F  0.89667748  0.28774959  0.64197316    -0.19340
C2123       C  0.00939030  0.32404289  0.36047776    -0.20770
C2124       C  0.02196755  0.34267856  0.35221142    -0.08820
C2125       C  0.05178623  0.36340472  0.35249820     0.30040
C2126       C  0.06886339  0.36447177  0.36068701    -0.20780
C2127       C  0.05650285  0.34525365  0.36880786    -0.08830
C2128       C  0.02648098  0.32528714  0.36872742     0.30050
F2129       F  0.01392577  0.30619985  0.37643165    -0.19350
H2130       H  0.98657725  0.30773668  0.36035532     0.18410
H2131       H  0.09178868  0.38043593  0.36071885     0.18420
F2132       F  0.06443835  0.38249456  0.34479442    -0.19340
C2133       C  0.94695604  0.67605017  0.63844932    -0.20770
C2134       C  0.93658742  0.65097529  0.63243678    -0.08820
C2135       C  0.94604255  0.63104576  0.63446447     0.30040
C2136       C  0.96498739  0.63591865  0.64254972    -0.20780
C2137       C  0.97471638  0.66066010  0.64871768    -0.08830
C2138       C  0.96595389  0.68098763  0.64646977     0.30050
F2139       F  0.97572054  0.70562545  0.65208297    -0.19350
H2140       H  0.94044738  0.69195302  0.63688217     0.18410
H2141       H  0.97118427  0.61984523  0.64423173     0.18420
F2142       F  0.93606879  0.60633615  0.62888100    -0.19340
C2143       C  0.06864905  0.69845431  0.36079674    -0.20770
C2144       C  0.05749972  0.70664990  0.36897033    -0.08820
C2145       C  0.02794529  0.69844300  0.36894165     0.30040
C2146       C  0.01029397  0.68339687  0.36064378    -0.20780
C2147       C  0.02188794  0.67639706  0.35229063    -0.08830
C2148       C  0.05105293  0.68338567  0.35255561     0.30050
F2149       F  0.06262897  0.67600390  0.34473876    -0.19350
H2150       H  0.09114544  0.70394011  0.36076787     0.18410
H2151       H  0.98794634  0.67838783  0.36053437     0.18420
F2152       F  0.01653529  0.70627794  0.37667825    -0.19340
C2153       C  0.06901247  0.38038912  0.40679547    -0.20770
C2154       C  0.07799905  0.35980793  0.40580416    -0.08820
C2155       C  0.08065651  0.34632841  0.41458282     0.30040
C2156       C  0.07504764  0.35395359  0.42413415    -0.20780
C2157       C  0.06683495  0.37516152  0.42509581    -0.08830
C2158       C  0.06330452  0.38787588  0.41627778     0.30050
F2159       F  0.05391907  0.40731938  0.41674484    -0.19350
H2160       H  0.06684739  0.39118433  0.40019750     0.18410
H2161       H  0.07776841  0.34374153  0.43079244     0.18420
F2162       F  0.08836712  0.32561412  0.41394018    -0.19340
C2163       C  0.05004623  0.70107515  0.42040954    -0.20770
C2164       C  0.06956178  0.69490270  0.42541095    -0.08820
C2165       C  0.09598042  0.70204296  0.42073242     0.30040
C2166       C  0.10221862  0.71409156  0.41108387    -0.20780
C2167       C  0.08220349  0.71903178  0.40586155    -0.08830
C2168       C  0.05616979  0.71282910  0.41064067     0.30050
F2169       F  0.03674262  0.71809287  0.40585980    -0.19350
H2170       H  0.02961190  0.69573782  0.42390013     0.18410
H2171       H  0.12245107  0.71884782  0.40755643     0.18420
F2172       F  0.11580646  0.69728877  0.42547849    -0.19340
C2173       C  0.92719079  0.60478974  0.58455258    -0.20770
C2174       C  0.92525067  0.61954202  0.57603426    -0.08820
C2175       C  0.91705165  0.64069320  0.57744833     0.30040
C2176       C  0.91079004  0.64661507  0.58716813    -0.20780
C2177       C  0.91253874  0.63159507  0.59563421    -0.08830
C2178       C  0.92074195  0.61051902  0.59420741     0.30050
F2179       F  0.92156923  0.59465902  0.60209669    -0.19350
H2180       H  0.93359785  0.58852606  0.58378731     0.18410
H2181       H  0.90453699  0.66298125  0.58808316     0.18420
F2182       F  0.91409135  0.65496205  0.56946598    -0.19340
C2183       C  0.93042067  0.32463976  0.58472567    -0.20770
C2184       C  0.92777844  0.30760020  0.57618720    -0.08820
C2185       C  0.91749966  0.27770465  0.57748828     0.30040
C2186       C  0.90988750  0.26532302  0.58714924    -0.20780
C2187       C  0.91253581  0.28253639  0.59563485    -0.08830
C2188       C  0.92275103  0.31232962  0.59430529     0.30050
F2189       F  0.92448874  0.32947025  0.60223336    -0.19350
H2190       H  0.93837444  0.34770957  0.58402578     0.18410
H2191       H  0.90198102  0.24228652  0.58801564     0.18420
F2192       F  0.91384983  0.26025324  0.56944368    -0.19340
C2193       C  0.36684967  0.06979003  0.64011028    -0.20770
C2194       C  0.34834722  0.05803641  0.63170623    -0.08820
C2195       C  0.32809050  0.02798744  0.63148911     0.30040
C2196       C  0.32568722  0.01043629  0.63974267    -0.20780
C2197       C  0.34334059  0.02258339  0.64831792    -0.08830
C2198       C  0.36446422  0.05230485  0.64832103     0.30050
F2199       F  0.38252024  0.06452078  0.65636471    -0.19350
H2200       H  0.38308601  0.09268171  0.64035134     0.18410
H2201       H  0.30912982  0.98764952  0.63963916     0.18420
F2202       F  0.30959846  0.01589339  0.62355472    -0.19340
C2203       C  0.18116435  0.84038320  0.37598746    -0.20770
C2204       C  0.20536654  0.84287052  0.38115032    -0.08820
C2205       C  0.20339073  0.81801772  0.38565230     0.30040
C2206       C  0.17701453  0.79190070  0.38574561    -0.20780
C2207       C  0.15219557  0.78997774  0.38129056    -0.08830
C2208       C  0.15470487  0.81410484  0.37603888     0.30050
F2209       F  0.13114399  0.81296516  0.37164145    -0.19350
H2210       H  0.18229246  0.85924474  0.37242691     0.18410
H2211       H  0.17566522  0.77336280  0.38964155     0.18420
F2212       F  0.22679045  0.81923925  0.39022248    -0.19340
C2213       C  0.29534953  0.96601395  0.36743198    -0.20770
C2214       C  0.28662038  0.93625519  0.36733798    -0.08820
C2215       C  0.29454574  0.92484007  0.35914268     0.30040
C2216       C  0.31006483  0.94268254  0.35107493    -0.20780
C2217       C  0.31799430  0.97219821  0.35100123    -0.08830
C2218       C  0.31089134  0.98390203  0.35932320     0.30050
F2219       F  0.31768094  0.01216839  0.35938915    -0.19350
H2220       H  0.28955463  0.97525202  0.37370251     0.18410
H2221       H  0.31556495  0.93332650  0.34475816     0.18420
F2222       F  0.28770117  0.89655220  0.35899905    -0.19340
C2223       C  0.83924912  0.18261407  0.62397084    -0.20770
C2224       C  0.84108029  0.20689315  0.61906932    -0.08820
C2225       C  0.81574819  0.20499709  0.61508120     0.30040
C2226       C  0.78960024  0.17865111  0.61528841    -0.20780
C2227       C  0.78815794  0.15371658  0.61948749    -0.08830
C2228       C  0.81298553  0.15614766  0.62418255     0.30050
F2229       F  0.81243654  0.13250334  0.62828202    -0.19350
H2230       H  0.85851686  0.18370259  0.62713359     0.18410
H2231       H  0.77059588  0.17741500  0.61181858     0.18420
F2232       F  0.81646666  0.22847205  0.61075141    -0.19340
C2233       C  0.71023021  0.03058883  0.64682648    -0.20770
C2234       C  0.68053248  0.01967528  0.64860088    -0.08820
C2235       C  0.66472886  0.02682321  0.64182557     0.30040
C2236       C  0.67872866  0.04527995  0.63365174    -0.20780
C2237       C  0.70866961  0.05709166  0.63216200    -0.08830
C2238       C  0.72422584  0.04922042  0.63874268     0.30050
F2239       F  0.75294719  0.05944752  0.63732894    -0.19350
H2240       H  0.72278852  0.02506071  0.65184945     0.18410
H2241       H  0.66637449  0.05115622  0.62866384     0.18420
F2242       F  0.63621411  0.01733471  0.64340542    -0.19340
C2243       C  0.67346905  0.94875851  0.36285287    -0.20770
C2244       C  0.64871397  0.93823925  0.36890808    -0.08820
C2245       C  0.62869000  0.94762096  0.36705835     0.30040
C2246       C  0.63300841  0.96647186  0.35901463    -0.20780
C2247       C  0.65732946  0.97619327  0.35274465    -0.08830
C2248       C  0.67791397  0.96773918  0.35489792     0.30050
F2249       F  0.70217069  0.97756443  0.34918711    -0.19350
H2250       H  0.68935288  0.94217535  0.36428708     0.18410
H2251       H  0.61677086  0.97246358  0.35741120     0.18420
F2252       F  0.60433024  0.93747781  0.37272875    -0.19340
C2253       C  0.60853379  0.89172735  0.41097986    -0.20770
C2254       C  0.63277733  0.91222832  0.40556278    -0.08820
C2255       C  0.65247907  0.93879540  0.41023568     0.30040
C2256       C  0.64735978  0.94495821  0.42008751    -0.20780
C2257       C  0.62234075  0.92491195  0.42527795    -0.08830
C2258       C  0.60324016  0.89800289  0.42071661     0.30050
F2259       F  0.57922629  0.87784531  0.42565101    -0.19350
H2260       H  0.59318972  0.87108363  0.40754303     0.18410
H2261       H  0.66222683  0.96581665  0.42349115     0.18420
F2262       F  0.67654700  0.95871243  0.40527327    -0.19340
C2263       C  0.27752690  0.92007129  0.42265507    -0.20770
C2264       C  0.30759188  0.93168713  0.42358915    -0.08820
C2265       C  0.32422774  0.93679462  0.41477451     0.30040
C2266       C  0.31092628  0.92932445  0.40531237    -0.20780
C2267       C  0.28080614  0.91694584  0.40433668    -0.08830
C2268       C  0.26414619  0.91264426  0.41311107     0.30050
F2269       F  0.23505661  0.90150581  0.41246920    -0.19350
H2270       H  0.26429414  0.91602456  0.42932745     0.18410
H2271       H  0.32429640  0.93277159  0.39871834     0.18420
F2272       F  0.35350634  0.94929383  0.41524028    -0.19340
C2273       C  0.34041335  0.05728539  0.58992161    -0.20770
C2274       C  0.36058201  0.08312267  0.59484836    -0.08820
C2275       C  0.38581659  0.10313107  0.58971678     0.30040
C2276       C  0.39115765  0.09696550  0.57997359    -0.20780
C2277       C  0.37139156  0.07094097  0.57508453    -0.08830
C2278       C  0.34559908  0.05132090  0.58003787     0.30050
F2279       F  0.32625631  0.02582106  0.57555801    -0.19350
H2280       H  0.32079298  0.04170530  0.59376210     0.18410
H2281       H  0.41114997  0.11241278  0.57629036     0.18420
F2282       F  0.40595715  0.12812330  0.59429476    -0.19340
C2283       C  0.69046677  0.09274927  0.58163525    -0.20770
C2284       C  0.68843771  0.06888191  0.57628474    -0.08820
C2285       C  0.69988575  0.05266672  0.58063301     0.30040
C2286       C  0.71206053  0.05964012  0.59035589    -0.20780
C2287       C  0.71353239  0.08320248  0.59571683    -0.08830
C2288       C  0.70306571  0.10000557  0.59122594     0.30050
F2289       F  0.70416282  0.12285061  0.59626843    -0.19350
H2290       H  0.68205398  0.10574458  0.57841161     0.18410
H2291       H  0.72025107  0.04662761  0.59373128     0.18420
F2292       F  0.69812593  0.02938244  0.57571181    -0.19340
C2293       C  0.38266553  0.20389929  0.61557974    -0.20770
C2294       C  0.35903764  0.20545901  0.61949406    -0.08820
C2295       C  0.33647422  0.18088718  0.62426433     0.30040
C2296       C  0.33656243  0.15455724  0.62433443    -0.20780
C2297       C  0.35911501  0.15252859  0.61966533    -0.08830
C2298       C  0.38280756  0.17773877  0.61568827     0.30050
F2299       F  0.40548923  0.17668833  0.61148948    -0.19350
H2300       H  0.40051087  0.22274018  0.61205329     0.18410
H2301       H  0.31814152  0.13533463  0.62743133     0.18420
F2302       F  0.31329687  0.18168497  0.62810938    -0.19340
C2303       C  0.32311490  0.31215757  0.63972877    -0.20770
C2304       C  0.34008891  0.31759450  0.64846479    -0.08820
C2305       C  0.36130999  0.30929166  0.64866162     0.30040
C2306       C  0.36454567  0.29464667  0.64044141    -0.20780
C2307       C  0.34681445  0.28808845  0.63184538    -0.08830
C2308       C  0.32636592  0.29745989  0.63146908     0.30050
F2309       F  0.30857525  0.29116164  0.62334351    -0.19350
H2310       H  0.30650523  0.31818309  0.63947905     0.18410
H2311       H  0.38089817  0.28828415  0.64080748     0.18420
F2312       F  0.37873833  0.31511896  0.65687325    -0.19340
C2313       C  0.19273197  0.36309285  0.37595907    -0.20770
C2314       C  0.19743375  0.34556744  0.38275409    -0.08820
C2315       C  0.17475113  0.32672018  0.38915784     0.30040
C2316       C  0.14864383  0.32679201  0.38922715    -0.20780
C2317       C  0.14443947  0.34550201  0.38289339    -0.08830
C2318       C  0.16641755  0.36312439  0.37601567     0.30050
F2319       F  0.16320740  0.38165107  0.36982967    -0.19350
H2320       H  0.20993427  0.37777583  0.37096528     0.18410
H2321       H  0.13181576  0.31263077  0.39443881     0.18420
F2322       F  0.17806315  0.30856926  0.39550631    -0.19340
C2323       C  0.29612476  0.32746186  0.36826636    -0.20770
C2324       C  0.28482290  0.34634200  0.36790718    -0.08820
C2325       C  0.28964142  0.36341939  0.35925498     0.30040
C2326       C  0.30478520  0.36102148  0.35104954    -0.20780
C2327       C  0.31528047  0.34145423  0.35125407    -0.08830
C2328       C  0.31116773  0.32493502  0.36001671     0.30050
F2329       F  0.32037701  0.30534335  0.36042530    -0.19350
H2330       H  0.29265485  0.31409776  0.37486811     0.18410
H2331       H  0.30803036  0.37427173  0.34443145     0.18420
F2332       F  0.28008853  0.38273445  0.35878275    -0.19340
C2333       C  0.79944626  0.63167869  0.62530579    -0.20770
C2334       C  0.79489682  0.64887078  0.61831128    -0.08820
C2335       C  0.81757232  0.66711190  0.61179818     0.30040
C2336       C  0.84350946  0.66671221  0.61181821    -0.20780
C2337       C  0.84752437  0.64828218  0.61835613    -0.08830
C2338       C  0.82559250  0.63132652  0.62534039     0.30050
F2339       F  0.82867136  0.61309516  0.63172010    -0.19350
H2340       H  0.78224375  0.61748200  0.63038958     0.18410
H2341       H  0.86032107  0.68033680  0.60651170     0.18420
F2342       F  0.81439589  0.68494963  0.60525427    -0.19340
C2343       C  0.72411110  0.67711731  0.63875783    -0.20770
C2344       C  0.70930335  0.65192625  0.63280650    -0.08820
C2345       C  0.68006747  0.63183030  0.63496408     0.30040
C2346       C  0.66621394  0.63669876  0.64310502    -0.20780
C2347       C  0.68131574  0.66160031  0.64919607    -0.08830
C2348       C  0.71026752  0.68204737  0.64683571     0.30050
F2349       F  0.72519386  0.70680473  0.65238754    -0.19350
H2350       H  0.74641387  0.69312155  0.63709023     0.18410
H2351       H  0.64405234  0.62053574  0.64488212     0.18420
F2352       F  0.66528128  0.60700655  0.62943906    -0.19340
C2353       C  0.61433274  0.79174158  0.38548645    -0.20770
C2354       C  0.63806643  0.79086096  0.38132373    -0.08820
C2355       C  0.65968947  0.81558625  0.37631068     0.30040
C2356       C  0.65858569  0.84139788  0.37620526    -0.20780
C2357       C  0.63589700  0.84279763  0.38105486    -0.08830
C2358       C  0.61310731  0.81734866  0.38530810     0.30050
F2359       F  0.59013879  0.81757856  0.38963038    -0.19350
H2360       H  0.59709606  0.77273193  0.38915620     0.18410
H2361       H  0.67633594  0.86074397  0.37288756     0.18420
F2362       F  0.68288568  0.81543492  0.37216837    -0.19340
C2363       C  0.67039700  0.70002040  0.36778696    -0.20770
C2364       C  0.64976226  0.70911790  0.36763942    -0.08820
C2365       C  0.63125314  0.70206592  0.35922136     0.30040
C2366       C  0.63412204  0.68721986  0.35099132    -0.20780
C2367       C  0.65542331  0.67905348  0.35095893    -0.08830
C2368       C  0.67327645  0.68512129  0.35951378     0.30050
F2369       F  0.69438740  0.67797010  0.35967268    -0.19350
H2370       H  0.68481296  0.70514547  0.37421290     0.18410
H2371       H  0.61986557  0.68238800  0.34453049     0.18420
F2372       F  0.61012265  0.70919362  0.35899208    -0.19340
C2373       C  0.64221584  0.71982813  0.42305465    -0.20770
C2374       C  0.62330119  0.68976860  0.42408788    -0.08820
C2375       C  0.61142334  0.67270476  0.41531054     0.30040
C2376       C  0.61746331  0.68558813  0.40579009    -0.20780
C2377       C  0.63564150  0.71572619  0.40472052    -0.08830
C2378       C  0.64828313  0.73279348  0.41346346     0.30050
F2379       F  0.66662993  0.76190320  0.41274519    -0.19350
H2380       H  0.65167316  0.73340099  0.42968955     0.18410
H2381       H  0.60734278  0.67190438  0.39922530     0.18420
F2382       F  0.59409095  0.64340139  0.41587541    -0.19340
C2383       C  0.32214108  0.38965371  0.41581982    -0.20770
C2384       C  0.30601779  0.37509664  0.42444403    -0.08820
C2385       C  0.27670290  0.35356608  0.42322126     0.30040
C2386       C  0.26397389  0.34709570  0.41357615    -0.20780
C2387       C  0.28015669  0.36193920  0.40499715    -0.08830
C2388       C  0.30942511  0.38338335  0.40623860     0.30050
F2389       F  0.32555361  0.39916199  0.39824763    -0.19350
H2390       H  0.34475777  0.40622224  0.41645315     0.18410
H2391       H  0.24137274  0.33050404  0.41281094     0.18420
F2392       F  0.26000018  0.33951230  0.43132482    -0.19340
C2393       C  0.71594251  0.64143898  0.57761456    -0.20770
C2394       C  0.68627655  0.62119234  0.57652971    -0.08820
C2395       C  0.66982674  0.60795369  0.58526839     0.30040
C2396       C  0.68303087  0.61399792  0.59476675    -0.20780
C2397       C  0.71280800  0.63364384  0.59586023    -0.08830
C2398       C  0.72916349  0.64765854  0.58717733     0.30050
F2399       F  0.75779745  0.66768107  0.58792844    -0.19350
H2400       H  0.72905996  0.65203667  0.57103606     0.18410
H2401       H  0.66988436  0.60292902  0.60129384     0.18420
F2402       F  0.64079396  0.58944147  0.58472213    -0.19340
C2403       C  0.34659065  0.29084973  0.57975155    -0.20770
C2404       C  0.37480978  0.30385798  0.57581774    -0.08820
C2405       C  0.39671128  0.30295886  0.58151608     0.30040
C2406       C  0.39063713  0.29019767  0.59106386    -0.20780
C2407       C  0.36282133  0.27838850  0.59515787    -0.08830
C2408       C  0.34065400  0.27840701  0.58941416     0.30050
F2409       F  0.31338413  0.26644044  0.59316763    -0.19350
H2410       H  0.32940861  0.29119762  0.57549309     0.18410
H2411       H  0.40784386  0.29003121  0.59537733     0.18420
F2412       F  0.42400665  0.31418779  0.57784937    -0.19340
C2413       C  0.90222876  0.34801605  0.32668085    -0.20770
C2414       C  0.88065169  0.33109421  0.33373645    -0.08820
C2415       C  0.88626847  0.31489631  0.34086297     0.30040
C2416       C  0.91288419  0.31559565  0.34085099    -0.20780
C2417       C  0.93436637  0.33230583  0.33372215    -0.08830
C2418       C  0.92877108  0.34865405  0.32664514     0.30050
F2419       F  0.94923654  0.36589834  0.31985132    -0.19350
H2420       H  0.89844996  0.36069551  0.32112722     0.18410
H2421       H  0.91664651  0.30286412  0.34638585     0.18420
F2422       F  0.86634071  0.29898418  0.34800557    -0.19340
C2423       C  0.64147815  0.06431291  0.33979522    -0.20770
C2424       C  0.66144650  0.06072155  0.33392639    -0.08820
C2425       C  0.68175644  0.08435791  0.32810609     0.30040
C2426       C  0.68162147  0.11059525  0.32804300    -0.20780
C2427       C  0.66157640  0.11416754  0.33386151    -0.08830
C2428       C  0.64154675  0.09070886  0.33981354     0.30050
F2429       F  0.62256319  0.09348115  0.34588812    -0.19350
H2430       H  0.62566870  0.04657491  0.34436818     0.18410
H2431       H  0.69727796  0.12820333  0.32338775     0.18420
F2432       F  0.70239011  0.08250731  0.32269489    -0.19340
C2433       C  0.74018062  0.22673531  0.32750193    -0.20770
C2434       C  0.71780858  0.22335191  0.33396918    -0.08820
C2435       C  0.72267336  0.24655948  0.34040151     0.30040
C2436       C  0.74930112  0.27257313  0.34027777    -0.20780
C2437       C  0.77163010  0.27600903  0.33377214    -0.08830
C2438       C  0.76678122  0.25276275  0.32736291     0.30050
F2439       F  0.78735947  0.25551935  0.32070498    -0.19350
H2440       H  0.73683286  0.20934269  0.32238335     0.18410
H2441       H  0.75260557  0.29000711  0.34536723     0.18420
F2442       F  0.70196610  0.24387610  0.34698625    -0.19340
C2443       C  0.44167812  0.34874844  0.32635270    -0.20770
C2444       C  0.44649148  0.33208170  0.33348264    -0.08820
C2445       C  0.42453707  0.31550396  0.34050410     0.30040
C2446       C  0.39830666  0.31555104  0.34031583    -0.20780
C2447       C  0.39332900  0.33192454  0.33309747    -0.08830
C2448       C  0.41539056  0.34865209  0.32611949     0.30050
F2449       F  0.41186427  0.36551299  0.31923226    -0.19350
H2450       H  0.45826552  0.36170382  0.32088235     0.18410
H2451       H  0.38172098  0.30256778  0.34578166     0.18420
F2452       F  0.42868793  0.29978676  0.34769998    -0.19340
C2453       C  0.39792383  0.08355096  0.32684306    -0.20770
C2454       C  0.39529235  0.06056901  0.33285052    -0.08820
C2455       C  0.41927325  0.06506304  0.33872879     0.30040
C2456       C  0.44497262  0.09197722  0.33866191    -0.20780
C2457       C  0.44759402  0.11496003  0.33266386    -0.08830
C2458       C  0.42374771  0.11037559  0.32669133     0.30050
F2459       F  0.42560263  0.13148879  0.32046327    -0.19350
H2460       H  0.37988141  0.08077198  0.32224284     0.18410
H2461       H  0.46289874  0.09484633  0.34334958     0.18420
F2462       F  0.41830064  0.04320802  0.34430839    -0.19340
C2463       C  0.56093134  0.15364977  0.32563365    -0.20770
C2464       C  0.55640512  0.17127555  0.33247720    -0.08820
C2465       C  0.57868419  0.18887156  0.33932966     0.30040
C2466       C  0.60475744  0.18856900  0.33934795    -0.20780
C2467       C  0.60914707  0.17068417  0.33258731    -0.08830
C2468       C  0.58702010  0.15336102  0.32565081     0.30050
F2469       F  0.59083271  0.13662949  0.31873939    -0.19350
H2470       H  0.54428569  0.14024435  0.32018969     0.18410
H2471       H  0.62134837  0.20187158  0.34482459     0.18420
F2472       F  0.57488777  0.20556419  0.34626426    -0.19340
C2473       C  0.51901936  0.24670915  0.33986302    -0.20770
C2474       C  0.50073176  0.22430556  0.33317533    -0.08820
C2475       C  0.48235684  0.22875961  0.32669822     0.30040
C2476       C  0.48234433  0.25506395  0.32695246    -0.20780
C2477       C  0.50068073  0.27750025  0.33361973    -0.08830
C2478       C  0.51900488  0.27301819  0.34011850     0.30050
F2479       F  0.53638155  0.29376882  0.34689813    -0.19350
H2480       H  0.53310276  0.24367517  0.34500519     0.18410
H2481       H  0.46835208  0.25812953  0.32177649     0.18420
F2482       F  0.46508484  0.20806645  0.31988548    -0.19340
C2483       C  0.90315236  0.55034194  0.33865908    -0.20770
C2484       C  0.88019052  0.54760533  0.33261652    -0.08820
C2485       C  0.88450400  0.57171258  0.32685468     0.30040
C2486       C  0.91102627  0.59787861  0.32727089    -0.20780
C2487       C  0.93397445  0.60058999  0.33332749    -0.08830
C2488       C  0.92975962  0.57632629  0.33896603     0.30050
F2489       F  0.95162004  0.57728862  0.34453707    -0.19350
H2490       H  0.90052573  0.53225196  0.34319464     0.18410
H2491       H  0.91359921  0.61610989  0.32283450     0.18420
F2492       F  0.86346870  0.56981277  0.32057021    -0.19340
C2493       C  0.80786615  0.41551409  0.32577108    -0.20770
C2494       C  0.82611990  0.43839588  0.33230763    -0.08820
C2495       C  0.84429834  0.43432506  0.33901295     0.30040
C2496       C  0.84420597  0.40797162  0.33911649    -0.20780
C2497       C  0.82596363  0.38507354  0.33258777    -0.08830
C2498       C  0.80779186  0.38913986  0.32586890     0.30050
F2499       F  0.79052401  0.36793724  0.31920555    -0.19350
H2500       H  0.79390556  0.41822630  0.32047036     0.18410
H2501       H  0.85807716  0.40525463  0.34445709     0.18420
F2502       F  0.86149855  0.45547502  0.34570369    -0.19340
C2503       C  0.68271034  0.57038634  0.33949944    -0.20770
C2504       C  0.66531780  0.54823875  0.33258821    -0.08820
C2505       C  0.64863933  0.55332886  0.32551574     0.30040
C2506       C  0.64919094  0.57992979  0.32546310    -0.20780
C2507       C  0.66623061  0.60194511  0.33247461    -0.08830
C2508       C  0.68313582  0.59693899  0.33948803     0.30050
F2509       F  0.70049786  0.61789335  0.34620918    -0.19350
H2510       H  0.69577695  0.56698155  0.34500026     0.18410
H2511       H  0.63593665  0.58319334  0.32000483     0.18420
F2512       F  0.63224435  0.53280386  0.31851886    -0.19340
C2513       C  0.58707092  0.43497389  0.32641847    -0.20770
C2514       C  0.60936563  0.43910520  0.33310229    -0.08820
C2515       C  0.60437226  0.41665228  0.33985886     0.30040
C2516       C  0.57772696  0.39067504  0.33984864    -0.20780
C2517       C  0.55544824  0.38651880  0.33315675    -0.08830
C2518       C  0.56040303  0.40897823  0.32641222     0.30050
F2519       F  0.53982321  0.40549074  0.31959862    -0.19350
H2520       H  0.59048551  0.45177815  0.32106587     0.18410
H2521       H  0.57432772  0.37387180  0.34520020     0.18420
F2522       F  0.62491273  0.42010235  0.34668524    -0.19340
C2523       C  0.72217293  0.47445175  0.32628220    -0.20770
C2524       C  0.71822790  0.49247004  0.33312019    -0.08820
C2525       C  0.74092839  0.51017026  0.33981236     0.30040
C2526       C  0.76705887  0.50998781  0.33956033    -0.20780
C2527       C  0.77110542  0.49213944  0.33267020    -0.08830
C2528       C  0.74831635  0.47428502  0.32602142     0.30050
F2529       F  0.75161668  0.45737372  0.31904182    -0.19350
H2530       H  0.70514763  0.46088681  0.32097840     0.18410
H2531       H  0.78407959  0.52358536  0.34485984     0.18420
F2532       F  0.73761785  0.52712785  0.34676832    -0.19340
C2533       C  0.34914654  0.44494980  0.66144928    -0.20770
C2534       C  0.32834722  0.44780209  0.66707803    -0.08820
C2535       C  0.30758092  0.42364010  0.67257788     0.30040
C2536       C  0.30755123  0.39731244  0.67231275    -0.20780
C2537       C  0.32840930  0.39449300  0.66670810    -0.08830
C2538       C  0.34939901  0.41876866  0.66131502     0.30050
F2539       F  0.37080348  0.41760478  0.65616937    -0.19350
H2540       H  0.36536018  0.46309642  0.65712633     0.18410
H2541       H  0.29110956  0.37904258  0.67652619     0.18420
F2542       F  0.28785149  0.42562959  0.67849148    -0.19340
C2543       C  0.06466044  0.41812994  0.66133309    -0.20770
C2544       C  0.06217176  0.39446184  0.66688995    -0.08820
C2545       C  0.08648533  0.39814079  0.67236422     0.30040
C2546       C  0.11224814  0.42498397  0.67243340    -0.20780
C2547       C  0.11470458  0.44867435  0.66690573    -0.08830
C2548       C  0.09061519  0.44481246  0.66124207     0.30050
F2549       F  0.09228289  0.46650221  0.65537533    -0.19350
H2550       H  0.04638602  0.41605761  0.65705442     0.18410
H2551       H  0.13033787  0.42722833  0.67687621     0.18420
F2552       F  0.08574654  0.37562658  0.67743677    -0.19340
C2553       C  0.22905313  0.48972261  0.65944057    -0.20770
C2554       C  0.22333737  0.50455293  0.66708816    -0.08820
C2555       C  0.24432523  0.51944383  0.67464183     0.30040
C2556       C  0.27049990  0.51937820  0.67452345    -0.20780
C2557       C  0.27612743  0.50435906  0.66692336    -0.08830
C2558       C  0.25524544  0.48966716  0.65932119     0.30050
F2559       F  0.26043504  0.47579488  0.65167093    -0.19350
H2560       H  0.21328426  0.47839966  0.65349674     0.18410
H2561       H  0.28619645  0.53058067  0.68049904     0.18420
F2562       F  0.23911575  0.53322917  0.68231855    -0.19340
C2563       C  0.55002557  0.90456322  0.66166380    -0.20770
C2564       C  0.54683095  0.88119427  0.66757842    -0.08820
C2565       C  0.57054440  0.88501258  0.67346374     0.30040
C2566       C  0.59684037  0.91131740  0.67324610    -0.20780
C2567       C  0.60013525  0.93465658  0.66729537    -0.08830
C2568       C  0.57626382  0.93103873  0.66154295     0.30050
F2569       F  0.57795479  0.95327970  0.65600027    -0.19350
H2570       H  0.53219490  0.90229797  0.65705802     0.18410
H2571       H  0.61477509  0.91334935  0.67773157     0.18420
F2572       F  0.56817257  0.86360457  0.67965278    -0.19340
C2573       C  0.57055454  0.68551310  0.67339420    -0.20770
C2574       C  0.54715119  0.66466831  0.66759761    -0.08820
C2575       C  0.55107228  0.64459798  0.66179963     0.30040
C2576       C  0.57766513  0.64528829  0.66194072    -0.20780
C2577       C  0.60103886  0.66610301  0.66776430    -0.08830
C2578       C  0.59721471  0.68642369  0.67344134     0.30050
F2579       F  0.61947350  0.70780676  0.67881017    -0.19350
H2580       H  0.56822012  0.70120213  0.67794305     0.18410
H2581       H  0.57994904  0.62941078  0.65748869     0.18420
F2582       F  0.52953529  0.62482570  0.65575210    -0.19340
C2583       C  0.40675116  0.56055268  0.66190467    -0.20770
C2584       C  0.38458082  0.55684634  0.66852912    -0.08820
C2585       C  0.38956340  0.57974346  0.67514031     0.30040
C2586       C  0.41611664  0.60583690  0.67500993    -0.20780
C2587       C  0.43820808  0.60958185  0.66833050    -0.08830
C2588       C  0.43326197  0.58660782  0.66177199     0.30050
F2589       F  0.45364785  0.58969125  0.65496688    -0.19350
H2590       H  0.40328918  0.54341677  0.65664209     0.18410
H2591       H  0.41954102  0.62308839  0.68020963     0.18420
F2592       F  0.36903582  0.57670275  0.68187392    -0.19340
C2593       C  0.51108798  0.74142281  0.67370765    -0.20770
C2594       C  0.49229335  0.71860852  0.66725004    -0.08820
C2595       C  0.47358877  0.72275258  0.66083127     0.30040
C2596       C  0.47371969  0.74915046  0.66094652    -0.20780
C2597       C  0.49253521  0.77195712  0.66740892    -0.08830
C2598       C  0.51122166  0.76779075  0.67382248     0.30050
F2599       F  0.52899135  0.78886506  0.68043907    -0.19350
H2600       H  0.52537907  0.73862713  0.67882294     0.18410
H2601       H  0.45936452  0.75194265  0.65586300     0.18420
F2602       F  0.45574075  0.70161265  0.65424889    -0.19340
C2603       C  0.35172272  0.93094818  0.66125144    -0.20770
C2604       C  0.33137834  0.93448749  0.66691007    -0.08820
C2605       C  0.31069251  0.91078899  0.67261305     0.30040
C2606       C  0.31095487  0.88462215  0.67282096    -0.20780
C2607       C  0.33139595  0.88111940  0.66721431    -0.08830
C2608       C  0.35165707  0.90457832  0.66131732     0.30050
F2609       F  0.37092110  0.90187278  0.65537661    -0.19350
H2610       H  0.36788810  0.94872504  0.65678429     0.18410
H2611       H  0.29508555  0.86703171  0.67742863     0.18420
F2612       F  0.28963680  0.91252137  0.67778567    -0.19340
C2613       C  0.40672069  0.84332479  0.67501457    -0.20770
C2614       C  0.38437967  0.82516069  0.66830187    -0.08820
C2615       C  0.38892590  0.80711611  0.66163704     0.30040
C2616       C  0.41531575  0.80746143  0.66168172    -0.20780
C2617       C  0.43775567  0.82579612  0.66833185    -0.08830
C2618       C  0.43311636  0.84363348  0.67506950     0.30050
F2619       F  0.45379765  0.86083940  0.68188055    -0.19350
H2620       H  0.40360581  0.85711244  0.68031067     0.18410
H2621       H  0.41844691  0.79376109  0.65634876     0.18420
F2622       F  0.36825992  0.78988571  0.65482312    -0.19340
C2623       C  0.09050962  0.64763064  0.67433137    -0.20770
C2624       C  0.11257327  0.66469453  0.66744145    -0.08820
C2625       C  0.10759246  0.68127566  0.66028961     0.30040
C2626       C  0.08120356  0.68098821  0.66015650    -0.20780
C2627       C  0.05934363  0.66435112  0.66717118    -0.08830
C2628       C  0.06419754  0.64748510  0.67423991     0.30050
F2629       F  0.04332693  0.63047266  0.68095405    -0.19350
H2630       H  0.09380615  0.63462703  0.67988751     0.18410
H2631       H  0.07799439  0.69415852  0.65464827     0.18420
F2632       F  0.12800472  0.69732167  0.65330008    -0.19340
C2633       C  0.18552647  0.60684504  0.66165917    -0.20770
C2634       C  0.16731976  0.61072163  0.66836731    -0.08820
C2635       C  0.14961376  0.58797754  0.67498017     0.30040
C2636       C  0.15015609  0.56192152  0.67481891    -0.20780
C2637       C  0.16836771  0.55805914  0.66809804    -0.08830
C2638       C  0.18604900  0.58082908  0.66148621     0.30050
F2639       F  0.20317842  0.57763640  0.65462212    -0.19350
H2640       H  0.19905125  0.62387307  0.65639926     0.18410
H2641       H  0.13659079  0.54484829  0.68005596     0.18420
F2642       F  0.13237847  0.59120494  0.68178448    -0.19340
C2643       C  0.24388844  0.72280259  0.66138216    -0.20770
C2644       C  0.22159429  0.71954140  0.66787261    -0.08820
C2645       C  0.22655577  0.74285126  0.67426493     0.30040
C2646       C  0.25323430  0.76879703  0.67410934    -0.20780
C2647       C  0.27554491  0.77201180  0.66763968    -0.08830
C2648       C  0.27057758  0.74871542  0.66124256     0.30050
F2649       F  0.29121646  0.75124019  0.65465522    -0.19350
H2650       H  0.24049448  0.70531478  0.65630341     0.18410
H2651       H  0.25666592  0.78628478  0.67919479     0.18420
F2652       F  0.20600065  0.74025612  0.68090380    -0.19340
C2653       C  0.24396226  0.26449669  0.00716246    -0.20770
C2654       C  0.26594733  0.26874656  0.00034575    -0.08820
C2655       C  0.26105795  0.24598804  0.99367589     0.30040
C2656       C  0.23470509  0.21971157  0.99382770    -0.20780
C2657       C  0.21267585  0.21552442  0.00060577    -0.08830
C2658       C  0.21758792  0.23821705  0.00730604     0.30050
F2659       F  0.19721765  0.23474202  0.01418262    -0.19350
H2660       H  0.24716619  0.28166015  0.01236753     0.18410
H2661       H  0.23144687  0.20259498  0.98859024     0.18420
F2662       F  0.28202519  0.24879519  0.98719545    -0.19340
C2663       C  0.75108986  0.73244779  0.00574576    -0.20770
C2664       C  0.72774555  0.72976567  0.99993831    -0.08820
C2665       C  0.73144860  0.75415805  0.99450508     0.30040
C2666       C  0.75799337  0.78022617  0.99474686    -0.20780
C2667       C  0.78133931  0.78290640  0.00054835    -0.08830
C2668       C  0.77746871  0.75869285  0.00613920     0.30050
F2669       F  0.79883533  0.76052184  0.01223164    -0.19350
H2670       H  0.74897365  0.71411687  0.01000239     0.18410
H2671       H  0.76026355  0.79838535  0.99034132     0.18420
F2672       F  0.70920256  0.75321756  0.98919038    -0.19340
C2673       C  0.73231281  0.98310703  0.00765945    -0.20770
C2674       C  0.72729523  0.99933488  0.00039090    -0.08820
C2675       C  0.74908373  0.01553717  0.99327045     0.30040
C2676       C  0.77522917  0.01535690  0.99344657    -0.20780
C2677       C  0.78010660  0.99892303  0.00066245    -0.08830
C2678       C  0.75838519  0.98281125  0.00780019     0.30050
F2679       F  0.76263584  0.96734148  0.01506801    -0.19350
H2680       H  0.71586501  0.97039911  0.01320281     0.18410
H2681       H  0.79166529  0.02794671  0.98788379     0.18420
F2682       F  0.74541319  0.03210212  0.98629489    -0.19340
C2683       C  0.81784311  0.89628920  0.00796363    -0.20770
C2684       C  0.83580465  0.89210599  0.00122224    -0.08820
C2685       C  0.85328237  0.91457104  0.99448162     0.30040
C2686       C  0.85276163  0.94059987  0.99453501    -0.20780
C2687       C  0.83477742  0.94478306  0.00125928    -0.08830
C2688       C  0.81732053  0.92234963  0.00801405     0.30050
F2689       F  0.80035199  0.92588882  0.01485080    -0.19350
H2690       H  0.80444479  0.87945231  0.01330016     0.18410
H2691       H  0.86611053  0.95738872  0.98917496     0.18420
F2692       F  0.87018909  0.91104603  0.98761183    -0.19340
C2693       C  0.01760626  0.23849885  0.99392593    -0.20770
C2694       C  0.99759626  0.21557124  0.00001444    -0.08820
C2695       C  0.97838654  0.22002917  0.00604059     0.30040
C2696       C  0.97911935  0.24670577  0.00586604    -0.20780
C2697       C  0.99915979  0.26966055  0.99978731    -0.08830
C2698       C  0.01856090  0.26528099  0.99383780     0.30050
F2699       F  0.03913754  0.28713834  0.98818099    -0.19350
H2700       H  0.03261192  0.23569913  0.98920018     0.18410
H2701       H  0.96392703  0.24941213  0.01051836     0.18420
F2702       F  0.95948230  0.19896120  0.01235392    -0.19340
C2703       C  0.05519099  0.14198198  0.99411946    -0.20770
C2704       C  0.05101744  0.16018522  0.00079555    -0.08820
C2705       C  0.07350765  0.17812786  0.00752309     0.30040
C2706       C  0.09968254  0.17803762  0.00744391    -0.20780
C2707       C  0.10391989  0.15997456  0.00072261    -0.08830
C2708       C  0.08134205  0.14185150  0.99405236     0.30050
F2709       F  0.08486335  0.12470546  0.98723805    -0.19350
H2710       H  0.03832952  0.12821921  0.98879459     0.18410
H2711       H  0.11658533  0.19185747  0.01274683     0.18420
F2712       F  0.06994962  0.19520957  0.01435352    -0.19340
C2713       C  0.91096796  0.05712881  0.99380320    -0.20770
C2714       C  0.88880162  0.05363337  0.00039832    -0.08820
C2715       C  0.89369084  0.07683244  0.00683405     0.30040
C2716       C  0.92016778  0.10293374  0.00661262    -0.20780
C2717       C  0.94234817  0.10642166  0.00003223    -0.08830
C2718       C  0.93747808  0.08322806  0.99359473     0.30050
F2719       F  0.95803025  0.08602039  0.98691648    -0.19350
H2720       H  0.90760065  0.03969752  0.98870061     0.18410
H2721       H  0.92356045  0.12032565  0.01173981     0.18420
F2722       F  0.87325858  0.07398278  0.01357702    -0.19340
C2723       C  0.97691628  0.75917337  0.00627418    -0.20770
C2724       C  0.99694314  0.78240375  0.00029268    -0.08820
C2725       C  0.01621846  0.77823749  0.99419112     0.30040
C2726       C  0.01561172  0.75159476  0.99422707    -0.20780
C2727       C  0.99564277  0.72839419  0.00024170    -0.08830
C2728       C  0.97607800  0.73244681  0.00621996     0.30050
F2729       F  0.95548237  0.71033855  0.01178797    -0.19350
H2730       H  0.96182113  0.76170592  0.01104354     0.18410
H2731       H  0.03089101  0.74913402  0.98953849     0.18420
F2732       F  0.03509001  0.79956541  0.98795054    -0.19340
C2733       C  0.93919420  0.85611161  0.99416084    -0.20770
C2734       C  0.94303359  0.83732612  0.00060409    -0.08820
C2735       C  0.92021216  0.81884073  0.00705171     0.30040
C2736       C  0.89411607  0.81907517  0.00696256    -0.20780
C2737       C  0.89024453  0.83780466  0.00050737    -0.08830
C2738       C  0.91309663  0.85637649  0.99408288     0.30050
F2739       F  0.90994446  0.87418755  0.98751955    -0.19350
H2740       H  0.95631723  0.87031797  0.98905227     0.18410
H2741       H  0.87701087  0.80489361  0.01208191     0.18420
F2742       F  0.92340657  0.80115478  0.01366157    -0.19340
C2743       C  0.26120473  0.01444089  0.99333615    -0.20770
C2744       C  0.26674194  0.99875334  0.00066771    -0.08820
C2745       C  0.24541836  0.98288747  0.00796595     0.30040
C2746       C  0.21920069  0.98290891  0.00792121    -0.20780
C2747       C  0.21385389  0.99893526  0.00068182    -0.08830
C2748       C  0.23509271  0.01468307  0.99335242     0.30050
F2749       F  0.23034352  0.02978892  0.98607771    -0.19350
H2750       H  0.27729176  0.02678511  0.98764184     0.18410
H2751       H  0.20311021  0.97059682  0.01361946     0.18420
F2752       F  0.24965287  0.96684315  0.01500375    -0.19340
C2753       C  0.17755198  0.10273198  0.00723632    -0.20770
C2754       C  0.15910636  0.10645654  0.00058616    -0.08820
C2755       C  0.14106388  0.08349715  0.99400871     0.30040
C2756       C  0.14144933  0.05739053  0.99416182    -0.20780
C2757       C  0.15986462  0.05365631  0.00082159    -0.08830
C2758       C  0.17794312  0.07662362  0.00738562     0.30050
F2759       F  0.19532857  0.07353624  0.01416904    -0.19350
H2760       H  0.19135067  0.11993107  0.01246320     0.18410
H2761       H  0.12759331  0.04015127  0.98895597     0.18420
F2762       F  0.12362089  0.08654243  0.98723804    -0.19340
C2763       C  0.08298721  0.94064452  0.99454951    -0.20770
C2764       C  0.10517368  0.94472068  0.00126656    -0.08820
C2765       C  0.10031949  0.92205083  0.00789356     0.30040
C2766       C  0.07386511  0.89585773  0.00771653    -0.20780
C2767       C  0.05171191  0.89176175  0.00097625    -0.08830
C2768       C  0.05655242  0.91447843  0.99437245     0.30050
F2769       F  0.03608785  0.91109574  0.98752201    -0.19350
H2770       H  0.08633085  0.95762022  0.98928636     0.18410
H2771       H  0.07052102  0.87885277  0.01296460     0.18420
F2772       F  0.12082333  0.92547114  0.01473073    -0.19340
loop_ 
_geom_bond_atom_site_label_1 
_geom_bond_atom_site_label_2 
_geom_bond_distance 
_geom_bond_site_symmetry_2 
_ccdc_geom_bond_type 
C1            C2   1.404       .  A
C1            C6   1.404   1_565  A
C1         C2747   1.483       .  S
C2            C3   1.405       .  A
C2            H7   1.084       .  S
C3            C4   1.405       .  A
C3         C2764   1.485       .  S
C4            C5   1.405   1_565  A
C4            H8   1.084       .  S
C5            C6   1.405       .  A
C5         C2757   1.485       .  S
C6            H9   1.083       .  S
C10          C11   1.405   1_455  A
C10          C15   1.406       .  A
C10        C2767   1.486       .  S
C11          C12   1.404       .  A
C11          H16   1.084       .  S
C12          C13   1.405       .  A
C12        C2734   1.486       .  S
C13          C14   1.406       .  A
C13          H17   1.083   1_554  S
C14          C15   1.406   1_655  A
C14        C2724   1.490       .  S
C15          H18   1.083       .  S
C19          C20   1.404       .  A
C19          C24   1.405   1_554  A
C19        C2717   1.484       .  S
C20          C21   1.404   1_655  A
C20          H25   1.084       .  S
C21          C22   1.405       .  A
C21        C2704   1.485       .  S
C22          C23   1.406   1_455  A
C22          H26   1.083       .  S
C23          C24   1.405   1_554  A
C23        C2694   1.489       .  S
C24          H27   1.083       .  S
C28          C29   1.404   1_545  A
C28          C33   1.405       .  A
C28        C2714   1.485       .  S
C29          C30   1.404       .  A
C29          H34   1.084       .  S
C30          C31   1.405       .  A
C30        C2687   1.485       .  S
C31          C32   1.405       .  A
C31          H35   1.083       .  S
C32          C33   1.404   1_565  A
C32        C2677   1.484       .  S
C33          H36   1.083       .  S
C37          C38   1.406       .  A
C37          C42   1.407       .  A
C37        C2667   1.491       .  S
C38          C39   1.405       .  A
C38          H43   1.083   1_554  S
C39          C40   1.404       .  A
C39        C2737   1.486       .  S
C40          C41   1.404       .  A
C40          H44   1.083       .  S
C41          C42   1.405       .  A
C41        C2684   1.485       .  S
C42          H45   1.083       .  S
C46          C47   1.404       .  A
C46          C51   1.405       .  A
C46        C2754   1.485       .  S
C47          C48   1.404       .  A
C47          H52   1.083       .  S
C48          C49   1.405       .  A
C48        C2707   1.485       .  S
C49          C50   1.405       .  A
C49          H53   1.084       .  S
C50          C51   1.405       .  A
C50        C2657   1.486       .  S
C51          H54   1.084       .  S
C55          C56   1.404       .  A
C55          C60   1.406       .  A
C55        C2644   1.486       .  S
C56          C57   1.404       .  A
C56          H61   1.084       .  S
C57          C58   1.405       .  A
C57        C2634   1.485       .  S
C58          C59   1.405       .  A
C58          H62   1.084       .  S
C59          C60   1.406       .  A
C59        C2624   1.486       .  S
C60          H63   1.083       .  S
C64          C65   1.405       .  A
C64          C69   1.404       .  A
C64        C2647   1.486       .  S
C65          C66   1.405       .  A
C65          H70   1.083       .  S
C66          C67   1.406       .  A
C66        C2614   1.486       .  S
C67          C68   1.407       .  A
C67          H71   1.083       .  S
C68          C69   1.407       .  A
C68        C2607   1.491       .  S
C69          H72   1.083       .  S
C73          C74   1.404       .  A
C73          C78   1.405       .  A
C73        C2587   1.485       .  S
C74          C75   1.404       .  A
C74          H79   1.083       .  S
C75          C76   1.405       .  A
C75        C2594   1.486       .  S
C76          C77   1.407       .  A
C76          H80   1.083       .  S
C77          C78   1.406       .  A
C77        C2574   1.491       .  S
C78          H81   1.083       .  S
C82          C83   1.405       .  A
C82          C87   1.407       .  A
C82        C2617   1.487       .  S
C83          C84   1.404       .  A
C83          H88   1.084       .  S
C84          C85   1.404       .  A
C84        C2597   1.486       .  S
C85          C86   1.406       .  A
C85          H89   1.083       .  S
C86          C87   1.407       .  A
C86        C2564   1.491       .  S
C87          H90   1.083       .  S
C91          C92   1.402       .  A
C91          C96   1.403       .  A
C91        C2554   1.481       .  S
C92          C93   1.404       .  A
C92          H97   1.084       .  S
C93          C94   1.406       .  A
C93        C2637   1.485       .  S
C94          C95   1.408       .  A
C94          H98   1.083       .  S
C95          C96   1.407       .  A
C95        C2547   1.491       .  S
C96          H99   1.083       .  S
C100        C101   1.404       .  A
C100        C105   1.405       .  A
C100       C2584   1.485       .  S
C101        C102   1.403       .  A
C101        H106   1.084       .  S
C102        C103   1.404       .  A
C102       C2557   1.481       .  S
C103        C104   1.406       .  A
C103        H107   1.083       .  S
C104        C105   1.407       .  A
C104       C2534   1.490       .  S
C105        H108   1.083       .  S
C109        C110   1.406       .  A
C109        C114   1.406       .  A
C109       C2514   1.487       .  S
C110        C111   1.406       .  A
C110        H115   1.083       .  S
C111        C112   1.405       .  A
C111       C2524   1.486       .  S
C112        C113   1.404       .  A
C112        H116   1.084       .  S
C113        C114   1.405       .  A
C113       C2504   1.486       .  S
C114        H117   1.084       .  S
C118        C119   1.404       .  A
C118        C123   1.405       .  A
C118       C2494   1.487       .  S
C119        C120   1.405       .  A
C119        H124   1.084       .  S
C120        C121   1.407       .  A
C120       C2527   1.487       .  S
C121        C122   1.407       .  A
C121        H125   1.083       .  S
C122        C123   1.407       .  A
C122       C2484   1.492       .  S
C123        H126   1.083       .  S
C127        C128   1.405       .  A
C127        C132   1.405       .  A
C127       C2474   1.486       .  S
C128        C129   1.404       .  A
C128        H133   1.084       .  S
C129        C130   1.405       .  A
C129       C2464   1.486       .  S
C130        C131   1.407       .  A
C130        H134   1.083       .  S
C131        C132   1.406       .  A
C131       C2457   1.490       .  S
C132        H135   1.083       .  S
C136        C137   1.405       .  A
C136        C141   1.406       .  A
C136       C2517   1.487       .  S
C137        C138   1.405       .  A
C137        H142   1.084       .  S
C138        C139   1.405       .  A
C138       C2477   1.486       .  S
C139        C140   1.405       .  A
C139        H143   1.084       .  S
C140        C141   1.406       .  A
C140       C2444   1.486       .  S
C141        H144   1.083       .  S
C145        C146   1.405       .  A
C145        C150   1.405       .  A
C145       C2434   1.487       .  S
C146        C147   1.405       .  A
C146        H151   1.084       .  S
C147        C148   1.406       .  A
C147       C2467   1.486       .  S
C148        C149   1.406       .  A
C148        H152   1.083       .  S
C149        C150   1.407       .  A
C149       C2427   1.491       .  S
C150        H153   1.083       .  S
C154        C155   1.405       .  A
C154        C159   1.407       .  A
C154       C2437   1.487       .  S
C155        C156   1.405       .  A
C155        H160   1.083       .  S
C156        C157   1.406       .  A
C156       C2497   1.487       .  S
C157        C158   1.406       .  A
C157        H161   1.084       .  S
C158        C159   1.406       .  A
C158       C2414   1.487       .  S
C159        H162   1.083       .  S
N163        N164   1.324       .  A
N163        C167   1.351       .  A
N163       Cu171   2.100       .  S
N164        C165   1.339       .  A
N164       Cu170   2.065       .  S
C165        C166   1.379       .  A
C165        H168   1.082       .  S
C166        C167   1.389       .  A
C166        C214   1.469       .  S
C167        H169   1.082       .  S
Cu170       N173   2.066       .  S
Cu171       N181   2.098       .  S
Cu172       N174   2.051       .  S
Cu172       N180   2.050       .  S
N173        N174   1.319       .  A
N173        C177   1.346       .  A
N174        C175   1.340       .  A
C175        C176   1.381       .  A
C175        H178   1.082       .  S
C176        C177   1.384       .  A
C176        C200   1.467       .  S
C177        H179   1.082       .  S
N180        N181   1.322       .  A
N180        C184   1.338       .  A
N181        C182   1.352       .  A
C182        C183   1.391       .  A
C182        H185   1.082       .  S
C183        C184   1.379       .  A
C183       C2404   1.480       .  S
C184        H186   1.081       .  S
N187        N188   1.325       .  A
N187        C191   1.352       .  A
N187       Cu195   2.103       .  S
N188        C189   1.340       .  A
N188       Cu194   2.070       .  S
C189        C190   1.380       .  A
C189        H192   1.082       .  S
C190        C191   1.389       .  A
C190        C238   1.471       .  S
C191        H193   1.082       .  S
Cu194       N197   2.070       .  S
Cu195       N205   2.101       .  S
Cu196       N198   2.045       .  S
Cu196       N204   2.045       .  S
N197        N198   1.318       .  A
N197        C201   1.347       .  A
N198        C199   1.339       .  A
C199        C200   1.380       .  A
C199        H202   1.082       .  S
C200        C201   1.386       .  A
C201        H203   1.082       .  S
N204        N205   1.321       .  A
N204        C208   1.337       .  A
N205        C206   1.352       .  A
C206        C207   1.394       .  A
C206        H209   1.082       .  S
C207        C208   1.379       .  A
C207       C2394   1.484       .  S
C208        H210   1.081       .  S
N211        N212   1.324       .  A
N211        C215   1.351       .  A
N211       Cu219   2.097       .  S
N212        C213   1.340       .  A
N212       Cu218   2.069       .  S
C213        C214   1.380       .  A
C213        H216   1.082       .  S
C214        C215   1.388       .  A
C215        H217   1.082       .  S
Cu218       N221   2.069       .  S
Cu219       N229   2.096       .  S
Cu220       N222   2.051       .  S
Cu220       N228   2.051       .  S
N221        N222   1.319       .  A
N221        C225   1.346       .  A
N222        C223   1.341       .  A
C223        C224   1.381       .  A
C223        H226   1.082       .  S
C224        C225   1.385       .  A
C224        C248   1.468       .  S
C225        H227   1.082       .  S
N228        N229   1.321       .  A
N228        C232   1.338       .  A
N229        C230   1.351       .  A
C230        C231   1.393       .  A
C230        H233   1.081       .  S
C231        C232   1.381       .  A
C231       C2384   1.485       .  S
C232        H234   1.081       .  S
N235        N236   1.324       .  A
N235        C239   1.352       .  A
N235       Cu243   2.103       .  S
N236        C237   1.339       .  A
N236       Cu242   2.066       .  S
C237        C238   1.379       .  A
C237        H240   1.082       .  S
C238        C239   1.390       .  A
C239        H241   1.082       .  S
Cu242       N245   2.067       .  S
Cu243       N253   2.102       .  S
Cu244       N246   2.052       .  S
Cu244       N252   2.053       .  S
N245        N246   1.318       .  A
N245        C249   1.346       .  A
N246        C247   1.341       .  A
C247        C248   1.381       .  A
C247        H250   1.082       .  S
C248        C249   1.385       .  A
C249        H251   1.082       .  S
N252        N253   1.322       .  A
N252        C256   1.338       .  A
N253        C254   1.352       .  A
C254        C255   1.393       .  A
C254        H257   1.082       .  S
C255        C256   1.380       .  A
C255       C2374   1.483       .  S
C256        H258   1.081       .  S
C259        C260   1.406       .  A
C259        C264   1.403       .  A
C259       C2354   1.483       .  S
C260        C261   1.404       .  A
C260        H265   1.083       .  S
C261        C262   1.405       .  A
C261       C2377   1.488       .  S
C262        C263   1.403       .  A
C262        H266   1.084       .  S
C263        C264   1.406       .  A
C263       C2364   1.483       .  S
C264        H267   1.084       .  S
C268        C269   1.405       .  A
C268        C273   1.405       .  A
C268       C2334   1.483       .  S
C269        C270   1.403       .  A
C269        H274   1.083       .  S
C270        C271   1.404       .  A
C270       C2397   1.487       .  S
C271        C272   1.402       .  A
C271        H275   1.084       .  S
C272        C273   1.408       .  A
C272       C2344   1.481       .  S
C273        H276   1.084       .  S
C277        C278   1.405       .  A
C277        C282   1.406       .  A
C277       C2314   1.484       .  S
C278        C279   1.402       .  A
C278        H283   1.084       .  S
C279        C280   1.403       .  A
C279       C2387   1.485       .  S
C280        C281   1.403       .  A
C280        H284   1.083       .  S
C281        C282   1.409       .  A
C281       C2324   1.483       .  S
C282        H285   1.084       .  S
C286        C287   1.403       .  A
C286        C291   1.403       .  A
C286       C2294   1.480       .  S
C287        C288   1.399       .  A
C287        H292   1.084       .  S
C288        C289   1.401       .  A
C288       C2407   1.474       .  S
C289        C290   1.405       .  A
C289        H293   1.084       .  S
C290        C291   1.409       .  A
C290       C2307   1.483       .  S
C291        H294   1.084       .  S
N295        N296   1.324       .  A
N295        C299   1.351       .  A
N295       Cu303   2.095       .  S
N296        C297   1.339       .  A
N296       Cu302   2.067       .  S
C297        C298   1.379       .  A
C297        H300   1.082       .  S
C298        C299   1.388       .  A
C298        C370   1.468   1_545  S
C299        H301   1.082   1_545  S
Cu302       N305   2.066       .  S
Cu303       N313   2.094       .  S
Cu304       N306   2.050       .  S
Cu304       N312   2.050       .  S
N305        N306   1.318       .  A
N305        C309   1.345       .  A
N306        C307   1.341       .  A
C307        C308   1.381       .  A
C307        H310   1.082       .  S
C308        C309   1.384       .  A
C308        C332   1.467       .  S
C309        H311   1.082       .  S
N312        N313   1.322       .  A
N312        C316   1.338       .  A
N313        C314   1.351       .  A
C314        C315   1.390       .  A
C314        H317   1.082       .  S
C315        C316   1.378       .  A
C315       C2284   1.477       .  S
C316        H318   1.082       .  S
N319        N320   1.324       .  A
N319        C323   1.351       .  A
N319       Cu327   2.100       .  S
N320        C321   1.339       .  A
N320       Cu326   2.066       .  S
C321        C322   1.379       .  A
C321        H324   1.082       .  S
C322        C323   1.388       .  A
C322        C346   1.469   1_545  S
C323        H325   1.082   1_545  S
Cu326       N329   2.065       .  S
Cu327       N337   2.098       .  S
Cu328       N330   2.049       .  S
Cu328       N336   2.049       .  S
N329        N330   1.318       .  A
N329        C333   1.345       .  A
N330        C331   1.341       .  A
C331        C332   1.381       .  A
C331        H334   1.082       .  S
C332        C333   1.384       .  A
C333        H335   1.082       .  S
N336        N337   1.322       .  A
N336        C340   1.337       .  A
N337        C338   1.352       .  A
C338        C339   1.390       .  A
C338        H341   1.082       .  S
C339        C340   1.377       .  A
C339       C2277   1.476       .  S
C340        H342   1.082       .  S
N343        N344   1.324       .  A
N343        C347   1.351       .  A
N343       Cu351   2.098       .  S
N344        C345   1.339       .  A
N344       Cu350   2.066       .  S
C345        C346   1.379       .  A
C345        H348   1.082       .  S
C346        C347   1.388       .  A
C347        H349   1.082       .  S
Cu350       N353   2.066       .  S
Cu351       N361   2.096       .  S
Cu352       N354   2.049       .  S
Cu352       N360   2.050       .  S
N353        N354   1.318       .  A
N353        C357   1.345       .  A
N354        C355   1.341       .  A
C355        C356   1.381       .  A
C355        H358   1.082       .  S
C356        C357   1.384       .  A
C356        C380   1.466       .  S
C357        H359   1.082       .  S
N360        N361   1.322       .  A
N360        C364   1.337       .  A
N361        C362   1.351       .  A
C362        C363   1.391       .  A
C362        H365   1.082       .  S
C363        C364   1.379       .  A
C363       C2264   1.480       .  S
C364        H366   1.081       .  S
N367        N368   1.324       .  A
N367        C371   1.351       .  A
N367       Cu375   2.097       .  S
N368        C369   1.339       .  A
N368       Cu374   2.065       .  S
C369        C370   1.379       .  A
C369        H372   1.082       .  S
C370        C371   1.388       .  A
C371        H373   1.082       .  S
Cu374       N377   2.065       .  S
Cu375       N385   2.096       .  S
Cu376       N378   2.048       .  S
Cu376       N384   2.048       .  S
N377        N378   1.318       .  A
N377        C381   1.345       .  A
N378        C379   1.341       .  A
C379        C380   1.381       .  A
C379        H382   1.082       .  S
C380        C381   1.384       .  A
C381        H383   1.082       .  S
N384        N385   1.323       .  A
N384        C388   1.337       .  A
N385        C386   1.352       .  A
C386        C387   1.389       .  A
C386        H389   1.082       .  S
C387        C388   1.375       .  A
C387       C2257   1.472       .  S
C388        H390   1.082       .  S
C391        C392   1.402       .  A
C391        C396   1.406       .  A
C391       C2357   1.483       .  S
C392        C393   1.399       .  A
C392        H397   1.084       .  S
C393        C394   1.402       .  A
C393       C2254   1.478       .  S
C394        C395   1.404       .  A
C394        H398   1.084       .  S
C395        C396   1.410       .  A
C395       C2244   1.479       .  S
C396        H399   1.084       .  S
C400        C401   1.403       .  A
C400        C405   1.406       .  A
C400       C2227   1.483       .  S
C401        C402   1.398       .  A
C401        H406   1.084       .  S
C402        C403   1.400       .  A
C402       C2287   1.473       .  S
C403        C404   1.404       .  A
C403        H407   1.084       .  S
C404        C405   1.410       .  A
C404       C2237   1.481       .  S
C405        H408   1.083       .  S
C409        C410   1.406       .  A
C409        C414   1.404       .  A
C409       C2204   1.482       .  S
C410        C411   1.403       .  A
C410        H415   1.083       .  S
C411        C412   1.403       .  A
C411       C2267   1.485       .  S
C412        C413   1.401       .  A
C412        H416   1.084       .  S
C413        C414   1.406       .  A
C413       C2214   1.480       .  S
C414        H417   1.084       .  S
C418        C419   1.400       .  A
C418        C423   1.402       .  A
C418       C2297   1.479       .  S
C419        C420   1.399       .  A
C419        H424   1.084       .  S
C420        C421   1.403       .  A
C420       C2274   1.478       .  S
C421        C422   1.407       .  A
C421        H425   1.084       .  S
C422        C423   1.411       .  A
C422       C2194   1.485       .  S
C423        H426   1.084       .  S
N427        N428   1.324       .  A
N427        C431   1.351       .  A
N427       Cu435   2.099       .  S
N428        C429   1.339       .  A
N428       Cu434   2.066       .  S
C429        C430   1.379       .  A
C429        H432   1.082       .  S
C430        C431   1.388       .  A
C430        C502   1.469   1_655  S
C431        H433   1.082   1_655  S
Cu434       N437   2.067       .  S
Cu435       N445   2.097       .  S
Cu436       N438   2.047       .  S
Cu436       N444   2.047       .  S
N437        N438   1.318       .  A
N437        C441   1.347       .  A
N438        C439   1.339       .  A
C439        C440   1.380       .  A
C439        H442   1.082       .  S
C440        C441   1.385       .  A
C440        C464   1.467       .  S
C441        H443   1.082       .  S
N444        N445   1.321       .  A
N444        C448   1.337       .  A
N445        C446   1.352       .  A
C446        C447   1.394       .  A
C446        H449   1.081       .  S
C447        C448   1.380       .  A
C447       C2184   1.484       .  S
C448        H450   1.082       .  S
N451        N452   1.324       .  A
N451        C455   1.351       .  A
N451       Cu459   2.100       .  S
N452        C453   1.339       .  A
N452       Cu458   2.066       .  S
C453        C454   1.379       .  A
C453        H456   1.082       .  S
C454        C455   1.389       .  A
C454        C478   1.469   1_655  S
C455        H457   1.082       .  S
Cu458       N461   2.067       .  S
Cu459       N469   2.098       .  S
Cu460       N462   2.047       .  S
Cu460       N468   2.047       .  S
N461        N462   1.318       .  A
N461        C465   1.347       .  A
N462        C463   1.339       .  A
C463        C464   1.380       .  A
C463        H466   1.082       .  S
C464        C465   1.385       .  A
C465        H467   1.082       .  S
N468        N469   1.321       .  A
N468        C472   1.337       .  A
N469        C470   1.351       .  A
C470        C471   1.395       .  A
C470        H473   1.081       .  S
C471        C472   1.381       .  A
C471       C2174   1.486       .  S
C472        H474   1.081       .  S
N475        N476   1.324       .  A
N475        C479   1.351       .  A
N475       Cu483   2.096       .  S
N476        C477   1.339       .  A
N476       Cu482   2.068       .  S
C477        C478   1.380       .  A
C477        H480   1.082       .  S
C478        C479   1.388       .  A
C479        H481   1.082   1_455  S
Cu482       N485   2.068       .  S
Cu483       N493   2.095       .  S
Cu484       N486   2.053       .  S
Cu484       N492   2.053       .  S
N485        N486   1.318       .  A
N485        C489   1.346       .  A
N486        C487   1.342       .  A
C487        C488   1.382       .  A
C487        H490   1.082       .  S
C488        C489   1.385       .  A
C488        C512   1.469       .  S
C489        H491   1.082       .  S
N492        N493   1.323       .  A
N492        C496   1.338       .  A
N493        C494   1.351       .  A
C494        C495   1.389       .  A
C494        H497   1.082       .  S
C495        C496   1.378       .  A
C495       C2164   1.476       .  S
C496        H498   1.082       .  S
N499        N500   1.324       .  A
N499        C503   1.351       .  A
N499       Cu507   2.096       .  S
N500        C501   1.340       .  A
N500       Cu506   2.068       .  S
C501        C502   1.380       .  A
C501        H504   1.082       .  S
C502        C503   1.388       .  A
C503        H505   1.082       .  S
Cu506       N509   2.068       .  S
Cu507       N517   2.095       .  S
Cu508       N510   2.054       .  S
Cu508       N516   2.054       .  S
N509        N510   1.319       .  A
N509        C513   1.346       .  A
N510        C511   1.342       .  A
C511        C512   1.382       .  A
C511        H514   1.082       .  S
C512        C513   1.385       .  A
C513        H515   1.082       .  S
N516        N517   1.322       .  A
N516        C520   1.338       .  A
N517        C518   1.351       .  A
C518        C519   1.391       .  A
C518        H521   1.082       .  S
C519        C520   1.380       .  A
C519       C2157   1.482       .  S
C520        H522   1.081       .  S
C523        C524   1.402       .  A
C523        C528   1.403       .  A
C523       C2207   1.481       .  S
C524        C525   1.400       .  A
C524        H529   1.084       .  S
C525        C526   1.403       .  A
C525       C2167   1.479       .  S
C526        C527   1.405       .  A
C526        H530   1.084       .  S
C527        C528   1.409       .  A
C527       C2144   1.482       .  S
C528        H531   1.084       .  S
C532        C533   1.405       .  A
C532        C537   1.405       .  A
C532       C2337   1.483       .  S
C533        C534   1.402       .  A
C533        H538   1.084       .  S
C534        C535   1.403       .  A
C534       C2177   1.484       .  S
C535        C536   1.402       .  A
C535        H539   1.084       .  S
C536        C537   1.408       .  A
C536       C2134   1.481       .  S
C537        H540   1.084       .  S
C541        C542   1.406       .  A
C541        C546   1.406       .  A
C541       C2317   1.485       .  S
C542        C543   1.403       .  A
C542        H547   1.083       .  S
C543        C544   1.404       .  A
C543       C2154   1.486       .  S
C544        C545   1.401       .  A
C544        H548   1.084       .  S
C545        C546   1.408       .  A
C545       C2127   1.481       .  S
C546        H549   1.084       .  S
C550        C551   1.406       .  A
C550        C555   1.404       .  A
C550       C2224   1.481       .  S
C551        C552   1.402       .  A
C551        H556   1.084       .  S
C552        C553   1.402       .  A
C552       C2187   1.481       .  S
C553        C554   1.401       .  A
C553        H557   1.084       .  S
C554        C555   1.407       .  A
C554       C2114   1.481       .  S
C555        H558   1.084       .  S
C559        C560   1.411       .  A
C559        C564   1.411       .  A
C559       C2537   1.490       .  S
C560        C561   1.403       .  A
C560        H565   1.083       .  S
C561        C562   1.398       .  A
C561       C2304   1.479       .  S
C562        C563   1.398       .  A
C562        H566   1.084       .  S
C563        C564   1.404       .  A
C563       C2104   1.480       .  S
C564        H567   1.083       .  S
C568        C569   1.412       .  A
C568        C573   1.411       .  A
C568       C2577   1.491       .  S
C569        C570   1.405       .  A
C569        H574   1.083       .  S
C570        C571   1.397       .  A
C570       C2347   1.480       .  S
C571        C572   1.397       .  A
C571        H575   1.084       .  S
C572        C573   1.404       .  A
C572       C2094   1.480       .  S
C573        H576   1.083       .  S
C577        C578   1.411       .  A
C577        C582   1.411       .  A
C577       C2447   1.488       .  S
C578        C579   1.407       .  A
C578        H583   1.083       .  S
C579        C580   1.398       .  A
C579       C2327   1.484       .  S
C580        C581   1.397       .  A
C580        H584   1.085       .  S
C581        C582   1.403       .  A
C581       C2087   1.477       .  S
C582        H585   1.083       .  S
C586        C587   1.410       .  A
C586        C591   1.411       .  A
C586       C2507   1.488       .  S
C587        C588   1.404       .  A
C587        H592   1.083       .  S
C588        C589   1.398       .  A
C588       C2367   1.481       .  S
C589        C590   1.398       .  A
C589        H593   1.084       .  S
C590        C591   1.405       .  A
C590       C2074   1.481       .  S
C591        H594   1.084       .  S
C595        C596   1.411       .  A
C595        C600   1.410       .  A
C595       C2627   1.487       .  S
C596        C597   1.405   1_455  A
C596        H601   1.084       .  S
C597        C598   1.398       .  A
C597       C2137   1.481       .  S
C598        C599   1.398       .  A
C598        H602   1.084       .  S
C599        C600   1.404   1_655  A
C599       C2064   1.481       .  S
C600        H603   1.084       .  S
C604        C605   1.412       .  A
C604        C609   1.411       .  A
C604       C2604   1.491       .  S
C605        C606   1.405   1_565  A
C605        H610   1.083       .  S
C606        C607   1.399       .  A
C606       C2197   1.481       .  S
C607        C608   1.398       .  A
C607        H611   1.084       .  S
C608        C609   1.403   1_545  A
C608       C2054   1.480       .  S
C609        H612   1.083       .  S
C613        C614   1.411       .  A
C613        C618   1.411   1_554  A
C613       C2727   1.491       .  S
C614        C615   1.405       .  A
C614        H619   1.083       .  S
C615        C616   1.398   1_554  A
C615       C2044   1.483       .  S
C616        C617   1.398       .  A
C616        H620   1.084       .  S
C617        C618   1.405       .  A
C617       C2034   1.482       .  S
C618        H621   1.083       .  S
N622        N623   1.324       .  A
N622        C626   1.351       .  A
N622       Cu630   2.100       .  S
N623        C624   1.340       .  A
N623       Cu629   2.066       .  S
C624        C625   1.379       .  A
C624        H627   1.082       .  S
C625        C626   1.388       .  A
C625        C673   1.469       .  S
C626        H628   1.082       .  S
Cu629       N632   2.066       .  S
Cu630       N640   2.098       .  S
Cu631       N633   2.048       .  S
Cu631       N639   2.049       .  S
N632        N633   1.318       .  A
N632        C636   1.346       .  A
N633        C634   1.340       .  A
C634        C635   1.381       .  A
C634        H637   1.082       .  S
C635        C636   1.384       .  A
C635        C659   1.466       .  S
C636        H638   1.082       .  S
N639        N640   1.322       .  A
N639        C643   1.338       .  A
N640        C641   1.352       .  A
C641        C642   1.390       .  A
C641        H644   1.082       .  S
C642        C643   1.377       .  A
C642       C2024   1.476       .  S
C643        H645   1.082       .  S
N646        N647   1.323       .  A
N646        C650   1.351       .  A
N646       Cu654   2.095       .  S
N647        C648   1.339       .  A
N647       Cu653   2.065       .  S
C648        C649   1.379       .  A
C648        H651   1.082       .  S
C649        C650   1.388       .  A
C649        C697   1.468       .  S
C650        H652   1.082       .  S
Cu653       N656   2.066       .  S
Cu654       N664   2.094       .  S
Cu655       N657   2.049       .  S
Cu655       N663   2.049       .  S
N656        N657   1.319       .  A
N656        C660   1.346       .  A
N657        C658   1.340       .  A
C658        C659   1.381       .  A
C658        H661   1.082       .  S
C659        C660   1.384       .  A
C660        H662   1.082       .  S
N663        N664   1.321       .  A
N663        C667   1.338       .  A
N664        C665   1.350       .  A
C665        C666   1.391       .  A
C665        H668   1.082       .  S
C666        C667   1.379       .  A
C666       C2014   1.480       .  S
C667        H669   1.081       .  S
N670        N671   1.324       .  A
N670        C674   1.351       .  A
N670       Cu678   2.099       .  S
N671        C672   1.340       .  A
N671       Cu677   2.066       .  S
C672        C673   1.379       .  A
C672        H675   1.082       .  S
C673        C674   1.389       .  A
C674        H676   1.082       .  S
Cu677       N680   2.066       .  S
Cu678       N688   2.098       .  S
Cu679       N681   2.051       .  S
Cu679       N687   2.051       .  S
N680        N681   1.318       .  A
N680        C684   1.346       .  A
N681        C682   1.341       .  A
C682        C683   1.381       .  A
C682        H685   1.082       .  S
C683        C684   1.384       .  A
C683        C707   1.467       .  S
C684        H686   1.082       .  S
N687        N688   1.322       .  A
N687        C691   1.338       .  A
N688        C689   1.352   1_565  A
C689        C690   1.390       .  A
C689        H692   1.082       .  S
C690        C691   1.377   1_545  A
C690       C2004   1.477       .  S
C691        H693   1.082       .  S
N694        N695   1.324       .  A
N694        C698   1.350       .  A
N694       Cu702   2.094       .  S
N695        C696   1.339       .  A
N695       Cu701   2.067       .  S
C696        C697   1.380       .  A
C696        H699   1.082       .  S
C697        C698   1.387       .  A
C698        H700   1.082       .  S
Cu701       N704   2.067       .  S
Cu702       N712   2.092   1_455  S
Cu703       N705   2.051       .  S
Cu703       N711   2.052       .  S
N704        N705   1.319       .  A
N704        C708   1.346       .  A
N705        C706   1.341       .  A
C706        C707   1.381       .  A
C706        H709   1.082       .  S
C707        C708   1.384       .  A
C708        H710   1.082       .  S
N711        N712   1.322   1_455  A
N711        C715   1.338       .  A
N712        C713   1.350       .  A
C713        C714   1.389       .  A
C713        H716   1.082       .  S
C714        C715   1.378   1_655  A
C714       C1994   1.476       .  S
C715        H717   1.082       .  S
C718        C719   1.403       .  A
C718        C723   1.402       .  A
C718       C1984   1.478       .  S
C719        C720   1.409       .  A
C719        H724   1.084       .  S
C720        C721   1.405       .  A
C720       C2067   1.479       .  S
C721        C722   1.400       .  A
C721        H725   1.084       .  S
C722        C723   1.397       .  A
C722       C1997   1.472       .  S
C723        H726   1.085       .  S
C727        C728   1.402       .  A
C727        C732   1.403       .  A
C727       C1974   1.480       .  S
C728        C729   1.399       .  A
C728        H733   1.084       .  S
C729        C730   1.402       .  A
C729       C2007   1.477       .  S
C730        C731   1.407       .  A
C730        H734   1.084       .  S
C731        C732   1.409       .  A
C731       C2057   1.485       .  S
C732        H735   1.084       .  S
C736        C737   1.402       .  A
C736        C741   1.403       .  A
C736       C1954   1.478       .  S
C737        C738   1.398       .  A
C737        H742   1.085       .  S
C738        C739   1.401       .  A
C738       C2027   1.475       .  S
C739        C740   1.406       .  A
C739        H743   1.084       .  S
C740        C741   1.410       .  A
C740       C1967   1.482       .  S
C741        H744   1.084       .  S
C745        C746   1.406       .  A
C745        C750   1.404       .  A
C745       C1944   1.482       .  S
C746        C747   1.409       .  A
C746        H751   1.084       .  S
C747        C748   1.403       .  A
C747       C2037   1.480       .  S
C748        C749   1.399       .  A
C748        H752   1.084       .  S
C749        C750   1.397       .  A
C749       C2017   1.469       .  S
C750        H753   1.084       .  S
C754        C755   1.409   1_554  A
C754        C759   1.409   1_565  A
C754       C2744   1.484       .  S
C755        C756   1.404       .  A
C755        H760   1.084       .  S
C756        C757   1.399   1_556  A
C756       C1964   1.480       .  S
C757        C758   1.399   1_565  A
C757        H761   1.084       .  S
C758        C759   1.404       .  A
C758       C1934   1.480       .  S
C759        H762   1.084       .  S
C763        C764   1.412       .  A
C763        C768   1.412       .  A
C763       C2454   1.491       .  S
C764        C765   1.404   1_545  A
C764        H769   1.083       .  S
C765        C766   1.396       .  A
C765       C2217   1.478       .  S
C766        C767   1.396       .  A
C766        H770   1.085       .  S
C767        C768   1.405   1_565  A
C767       C1924   1.479       .  S
C768        H771   1.083       .  S
C772        C773   1.411       .  A
C772        C777   1.412       .  A
C772       C2544   1.491       .  S
C773        C774   1.403   1_455  A
C773        H778   1.083       .  S
C774        C775   1.396       .  A
C774       C2117   1.477       .  S
C775        C776   1.396       .  A
C775        H779   1.085       .  S
C776        C777   1.405   1_655  A
C776       C1917   1.480       .  S
C777        H780   1.083       .  S
N781        N782   1.324       .  A
N781        C785   1.351       .  A
N781       Cu789   2.094       .  S
N782        C783   1.339       .  A
N782       Cu788   2.068       .  S
C783        C784   1.380       .  A
C783        H786   1.082       .  S
C784        C785   1.387       .  A
C784        C856   1.468       .  S
C785        H787   1.082       .  S
Cu788       N791   2.068       .  S
Cu789       N799   2.093       .  S
Cu790       N792   2.052       .  S
Cu790       N798   2.052       .  S
N791        N792   1.319       .  A
N791        C795   1.346       .  A
N792        C793   1.341       .  A
C793        C794   1.382       .  A
C793        H796   1.082       .  S
C794        C795   1.385       .  A
C794        C818   1.468       .  S
C795        H797   1.082       .  S
N798        N799   1.322       .  A
N798        C802   1.338       .  A
N799        C800   1.351       .  A
C800        C801   1.390       .  A
C800        H803   1.082       .  S
C801        C802   1.378       .  A
C801       C1904   1.477       .  S
C802        H804   1.082       .  S
N805        N806   1.324       .  A
N805        C809   1.350       .  A
N805       Cu813   2.096       .  S
N806        C807   1.339       .  A
N806       Cu812   2.067       .  S
C807        C808   1.380       .  A
C807        H810   1.082       .  S
C808        C809   1.388       .  A
C808        C832   1.468       .  S
C809        H811   1.082       .  S
Cu812       N815   2.067       .  S
Cu813       N823   2.094       .  S
Cu814       N816   2.052       .  S
Cu814       N822   2.052       .  S
N815        N816   1.318       .  A
N815        C819   1.346       .  A
N816        C817   1.341       .  A
C817        C818   1.382       .  A
C817        H820   1.082       .  S
C818        C819   1.385       .  A
C819        H821   1.082       .  S
N822        N823   1.322       .  A
N822        C826   1.338       .  A
N823        C824   1.351       .  A
C824        C825   1.390       .  A
C824        H827   1.082       .  S
C825        C826   1.377       .  A
C825       C1894   1.476       .  S
C826        H828   1.082       .  S
N829        N830   1.324       .  A
N829        C833   1.351       .  A
N829       Cu837   2.097       .  S
N830        C831   1.339       .  A
N830       Cu836   2.068       .  S
C831        C832   1.379       .  A
C831        H834   1.082       .  S
C832        C833   1.388       .  A
C833        H835   1.082       .  S
Cu836       N839   2.067       .  S
Cu837       N847   2.095   1_545  S
Cu838       N840   2.044       .  S
Cu838       N846   2.044       .  S
N839        N840   1.318       .  A
N839        C843   1.346       .  A
N840        C841   1.339       .  A
C841        C842   1.380       .  A
C841        H844   1.082       .  S
C842        C843   1.385       .  A
C842        C866   1.465       .  S
C843        H845   1.082       .  S
N846        N847   1.321   1_545  A
N846        C850   1.337       .  A
N847        C848   1.351       .  A
C848        C849   1.392       .  A
C848        H851   1.082       .  S
C849        C850   1.379   1_565  A
C849       C1887   1.480       .  S
C850        H852   1.081       .  S
N853        N854   1.323       .  A
N853        C857   1.351       .  A
N853       Cu861   2.095       .  S
N854        C855   1.339       .  A
N854       Cu860   2.064       .  S
C855        C856   1.379       .  A
C855        H858   1.082       .  S
C856        C857   1.388       .  A
C857        H859   1.082       .  S
Cu860       N863   2.066       .  S
Cu861       N871   2.094       .  S
Cu862       N864   2.049       .  S
Cu862       N870   2.048       .  S
N863        N864   1.319       .  A
N863        C867   1.346       .  A
N864        C865   1.340       .  A
C865        C866   1.380       .  A
C865        H868   1.082       .  S
C866        C867   1.384       .  A
C867        H869   1.082       .  S
N870        N871   1.320       .  A
N870        C874   1.337       .  A
N871        C872   1.350       .  A
C872        C873   1.396       .  A
C872        H875   1.080       .  S
C873        C874   1.384       .  A
C873       C1874   1.491       .  S
C874        H876   1.080       .  S
C877        C878   1.403       .  A
C877        C882   1.405       .  A
C877       C1854   1.482       .  S
C878        C879   1.399       .  A
C878        H883   1.084       .  S
C879        C880   1.400       .  A
C879       C1907   1.475       .  S
C880        C881   1.404       .  A
C880        H884   1.084       .  S
C881        C882   1.409       .  A
C881       C1864   1.480       .  S
C882        H885   1.084       .  S
C886        C887   1.403       .  A
C886        C891   1.401       .  A
C886       C1844   1.478       .  S
C887        C888   1.410       .  A
C887        H892   1.084       .  S
C888        C889   1.406       .  A
C888       C1937   1.482       .  S
C889        C890   1.401       .  A
C889        H893   1.084       .  S
C890        C891   1.397       .  A
C890       C1897   1.474       .  S
C891        H894   1.085       .  S
C895        C896   1.405       .  A
C895        C900   1.404       .  A
C895       C1834   1.481       .  S
C896        C897   1.409       .  A
C896        H901   1.084       .  S
C897        C898   1.402       .  A
C897       C2084   1.479       .  S
C898        C899   1.400       .  A
C898        H902   1.084       .  S
C899        C900   1.397       .  A
C899       C1877   1.471       .  S
C900        H903   1.084       .  S
C904        C905   1.406       .  A
C904        C909   1.407       .  A
C904       C1824   1.484       .  S
C905        C906   1.406       .  A
C905        H910   1.084       .  S
C906        C907   1.399       .  A
C906       C1927   1.477       .  S
C907        C908   1.402       .  A
C907        H911   1.084       .  S
C908        C909   1.403       .  A
C908       C1884   1.483       .  S
C909        H912   1.084       .  S
N913        N914   1.324       .  A
N913        C917   1.351       .  A
N913       Cu921   2.095       .  S
N914        C915   1.340       .  A
N914       Cu920   2.069       .  S
C915        C916   1.380       .  A
C915        H918   1.082       .  S
C916        C917   1.388       .  A
C916        C988   1.468       .  S
C917        H919   1.082       .  S
Cu920       N923   2.069       .  S
Cu921       N931   2.094       .  S
Cu922       N924   2.050       .  S
Cu922       N930   2.050       .  S
N923        N924   1.318       .  A
N923        C927   1.346       .  A
N924        C925   1.341       .  A
C925        C926   1.381       .  A
C925        H928   1.082       .  S
C926        C927   1.385       .  A
C926        C950   1.468       .  S
C927        H929   1.082       .  S
N930        N931   1.322       .  A
N930        C934   1.338       .  A
N931        C932   1.351       .  A
C932        C933   1.389       .  A
C932        H935   1.082       .  S
C933        C934   1.378       .  A
C933       C1814   1.476       .  S
C934        H936   1.082       .  S
N937        N938   1.324       .  A
N937        C941   1.351       .  A
N937       Cu945   2.097       .  S
N938        C939   1.339       .  A
N938       Cu944   2.066       .  S
C939        C940   1.379       .  A
C939        H942   1.082       .  S
C940        C941   1.388       .  A
C940        C964   1.469       .  S
C941        H943   1.082       .  S
Cu944       N947   2.066       .  S
Cu945       N955   2.096       .  S
Cu946       N948   2.052       .  S
Cu946       N954   2.052       .  S
N947        N948   1.318       .  A
N947        C951   1.346       .  A
N948        C949   1.341       .  A
C949        C950   1.381       .  A
C949        H952   1.082       .  S
C950        C951   1.384       .  A
C951        H953   1.082       .  S
N954        N955   1.322       .  A
N954        C958   1.338       .  A
N955        C956   1.351       .  A
C956        C957   1.391       .  A
C956        H959   1.082       .  S
C957        C958   1.379       .  A
C957       C1804   1.480       .  S
C958        H960   1.081       .  S
N961        N962   1.325       .  A
N961        C965   1.351       .  A
N961       Cu969   2.098       .  S
N962        C963   1.340       .  A
N962       Cu968   2.070       .  S
C963        C964   1.379       .  A
C963        H966   1.082       .  S
C964        C965   1.388       .  A
C965        H967   1.082       .  S
Cu968       N971   2.069       .  S
Cu969       N979   2.096       .  S
Cu970       N972   2.043       .  S
Cu970       N978   2.043       .  S
N971        N972   1.318       .  A
N971        C975   1.347       .  A
N972        C973   1.339       .  A
C973        C974   1.379       .  A
C973        H976   1.082       .  S
C974        C975   1.386       .  A
C974        C998   1.466       .  S
C975        H977   1.082       .  S
N978        N979   1.320       .  A
N978        C982   1.336       .  A
N979        C980   1.351   1_455  A
C980        C981   1.393       .  A
C980        H983   1.082       .  S
C981        C982   1.379   1_655  A
C981       C1797   1.482       .  S
C982        H984   1.081       .  S
N985        N986   1.324       .  A
N985        C989   1.351       .  A
N985       Cu993   2.099       .  S
N986        C987   1.339       .  A
N986       Cu992   2.064       .  S
C987        C988   1.379       .  A
C987        H990   1.082       .  S
C988        C989   1.389       .  A
C989        H991   1.082       .  S
Cu992       N995   2.065       .  S
Cu993      N1003   2.097       .  S
Cu994       N996   2.049       .  S
Cu994      N1002   2.049       .  S
N995        N996   1.319       .  A
N995        C999   1.346       .  A
N996        C997   1.340       .  A
C997        C998   1.381       .  A
C997       H1000   1.082       .  S
C998        C999   1.384       .  A
C999       H1001   1.082       .  S
N1002      N1003   1.321       .  A
N1002      C1006   1.338       .  A
N1003      C1004   1.352       .  A
C1004      C1005   1.391       .  A
C1004      H1007   1.082       .  S
C1005      C1006   1.378       .  A
C1005      C1784   1.480       .  S
C1006      H1008   1.081       .  S
C1009      C1010   1.404       .  A
C1009      C1014   1.403       .  A
C1009      C1977   1.480       .  S
C1010      C1011   1.410       .  A
C1010      H1015   1.083       .  S
C1011      C1012   1.406       .  A
C1011      C2107   1.484       .  S
C1012      C1013   1.401       .  A
C1012      H1016   1.084       .  S
C1013      C1014   1.398       .  A
C1013      C1787   1.471       .  S
C1014      H1017   1.084       .  S
C1018      C1019   1.404       .  A
C1018      C1023   1.405       .  A
C1018      C1777   1.480       .  S
C1019      C1020   1.407       .  A
C1019      H1024   1.084       .  S
C1020      C1021   1.402       .  A
C1020      C1914   1.481       .  S
C1021      C1022   1.403       .  A
C1021      H1025   1.084       .  S
C1022      C1023   1.402       .  A
C1022      C1794   1.485       .  S
C1023      H1026   1.083       .  S
C1027      C1028   1.405       .  A
C1027      C1032   1.402       .  A
C1027      C1947   1.480       .  S
C1028      C1029   1.403       .  A
C1028      H1033   1.084       .  S
C1029      C1030   1.404       .  A
C1029      C1807   1.484       .  S
C1030      C1031   1.402       .  A
C1030      H1034   1.084       .  S
C1031      C1032   1.407       .  A
C1031      C1764   1.481       .  S
C1032      H1035   1.084       .  S
C1036      C1037   1.403       .  A
C1036      C1041   1.404       .  A
C1036      C1744   1.480       .  S
C1037      C1038   1.399       .  A
C1037      H1042   1.084       .  S
C1038      C1039   1.401       .  A
C1038      C1817   1.476       .  S
C1039      C1040   1.404       .  A
C1039      H1043   1.084       .  S
C1040      C1041   1.408       .  A
C1040      C1754   1.478       .  S
C1041      H1044   1.084       .  S
C1045      C1046   1.410       .  A
C1045      C1050   1.410   1_554  A
C1045      C2654   1.487       .  S
C1046      C1047   1.404       .  A
C1046      H1051   1.084       .  S
C1047      C1048   1.399       .  A
C1047      C1867   1.481       .  S
C1048      C1049   1.398   1_554  A
C1048      H1052   1.084       .  S
C1049      C1050   1.404       .  A
C1049      C1757   1.480       .  S
C1050      H1053   1.083       .  S
C1054      C1055   1.413       .  A
C1054      C1059   1.411       .  A
C1054      C2424   1.491       .  S
C1055      C1056   1.406   1_545  A
C1055      H1060   1.083       .  S
C1056      C1057   1.398       .  A
C1056      C2247   1.481       .  S
C1057      C1058   1.397       .  A
C1057      H1061   1.084       .  S
C1058      C1059   1.403   1_565  A
C1058      C1734   1.480       .  S
C1059      H1062   1.083       .  S
C1063      C1064   1.412       .  A
C1063      C1068   1.411       .  A
C1063      C2417   1.489       .  S
C1064      C1065   1.406   1_655  A
C1064      H1069   1.083       .  S
C1065      C1066   1.397       .  A
C1065      C2124   1.482       .  S
C1066      C1067   1.397       .  A
C1066      H1070   1.084       .  S
C1067      C1068   1.404   1_455  A
C1067      C1724   1.480       .  S
C1068      H1071   1.083       .  S
C1072      C1073   1.410   1_565  A
C1072      C1077   1.410   1_554  A
C1072      C2674   1.486       .  S
C1073      C1074   1.404       .  A
C1073      H1078   1.083       .  S
C1074      C1075   1.399   1_545  A
C1074      C1717   1.481       .  S
C1075      C1076   1.398   1_554  A
C1075      H1079   1.084       .  S
C1076      C1077   1.404       .  A
C1076      C1704   1.481       .  S
C1077      H1080   1.083       .  S
N1081      N1082   1.324       .  A
N1081      C1085   1.351       .  A
N1081     Cu1089   2.101       .  S
N1082      C1083   1.340       .  A
N1082     Cu1088   2.068       .  S
C1083      C1084   1.380       .  A
C1083      H1086   1.082       .  S
C1084      C1085   1.389       .  A
C1084      C1156   1.469       .  S
C1085      H1087   1.082   1_545  S
Cu1088     N1091   2.068       .  S
Cu1089     N1099   2.099       .  S
Cu1090     N1092   2.049       .  S
Cu1090     N1098   2.050       .  S
N1091      N1092   1.318       .  A
N1091      C1095   1.346       .  A
N1092      C1093   1.341       .  A
C1093      C1094   1.381       .  A
C1093      H1096   1.082       .  S
C1094      C1095   1.385       .  A
C1094      C1118   1.467       .  S
C1095      H1097   1.082       .  S
N1098      N1099   1.322       .  A
N1098      C1102   1.338       .  A
N1099      C1100   1.352       .  A
C1100      C1101   1.391       .  A
C1100      H1103   1.082       .  S
C1101      C1102   1.377       .  A
C1101      C1694   1.477       .  S
C1102      H1104   1.082       .  S
N1105      N1106   1.324       .  A
N1105      C1109   1.351       .  A
N1105     Cu1113   2.097       .  S
N1106      C1107   1.339       .  A
N1106     Cu1112   2.066       .  S
C1107      C1108   1.379       .  A
C1107      H1110   1.082       .  S
C1108      C1109   1.388       .  A
C1108      C1132   1.469       .  S
C1109      H1111   1.082       .  S
Cu1112     N1115   2.067       .  S
Cu1113     N1123   2.096       .  S
Cu1114     N1116   2.050       .  S
Cu1114     N1122   2.050       .  S
N1115      N1116   1.318       .  A
N1115      C1119   1.346       .  A
N1116      C1117   1.341       .  A
C1117      C1118   1.381       .  A
C1117      H1120   1.082       .  S
C1118      C1119   1.385       .  A
C1119      H1121   1.082       .  S
N1122      N1123   1.321       .  A
N1122      C1126   1.338       .  A
N1123      C1124   1.351       .  A
C1124      C1125   1.392       .  A
C1124      H1127   1.081       .  S
C1125      C1126   1.380       .  A
C1125      C1687   1.482       .  S
C1126      H1128   1.082       .  S
N1129      N1130   1.324       .  A
N1129      C1133   1.351       .  A
N1129     Cu1137   2.097       .  S
N1130      C1131   1.340       .  A
N1130     Cu1136   2.069       .  S
C1131      C1132   1.380       .  A
C1131      H1134   1.082       .  S
C1132      C1133   1.388       .  A
C1133      H1135   1.082       .  S
Cu1136     N1139   2.070       .  S
Cu1137     N1147   2.095       .  S
Cu1138     N1140   2.048       .  S
Cu1138     N1146   2.048       .  S
N1139      N1140   1.318       .  A
N1139      C1143   1.347       .  A
N1140      C1141   1.340       .  A
C1141      C1142   1.380       .  A
C1141      H1144   1.082       .  S
C1142      C1143   1.386       .  A
C1142      C1166   1.468       .  S
C1143      H1145   1.082       .  S
N1146      N1147   1.321       .  A
N1146      C1150   1.338       .  A
N1147      C1148   1.350   1_655  A
C1148      C1149   1.393       .  A
C1148      H1151   1.081       .  S
C1149      C1150   1.381   1_455  A
C1149      C1674   1.484       .  S
C1150      H1152   1.081       .  S
N1153      N1154   1.324       .  A
N1153      C1157   1.351       .  A
N1153     Cu1161   2.101   1_545  S
N1154      C1155   1.340       .  A
N1154     Cu1160   2.065       .  S
C1155      C1156   1.379       .  A
C1155      H1158   1.082       .  S
C1156      C1157   1.389       .  A
C1157      H1159   1.082   1_545  S
Cu1160     N1163   2.066       .  S
Cu1161     N1171   2.100       .  S
Cu1162     N1164   2.053       .  S
Cu1162     N1170   2.053       .  S
N1163      N1164   1.319       .  A
N1163      C1167   1.346       .  A
N1164      C1165   1.340       .  A
C1165      C1166   1.381       .  A
C1165      H1168   1.082       .  S
C1166      C1167   1.385       .  A
C1167      H1169   1.082       .  S
N1170      N1171   1.322   1_545  A
N1170      C1174   1.339       .  A
N1171      C1172   1.352       .  A
C1172      C1173   1.392       .  A
C1172      H1175   1.082       .  S
C1173      C1174   1.380   1_565  A
C1173      C1664   1.483       .  S
C1174      H1176   1.081       .  S
C1177      C1178   1.406       .  A
C1177      C1182   1.405       .  A
C1177      C1644   1.483       .  S
C1178      C1179   1.402       .  A
C1178      H1183   1.084       .  S
C1179      C1180   1.402       .  A
C1179      C1684   1.481       .  S
C1180      C1181   1.401       .  A
C1180      H1184   1.084       .  S
C1181      C1182   1.407       .  A
C1181      C1657   1.478       .  S
C1182      H1185   1.084       .  S
C1186      C1187   1.401       .  A
C1186      C1191   1.402       .  A
C1186      C1847   1.477       .  S
C1187      C1188   1.409       .  A
C1187      H1192   1.084       .  S
C1188      C1189   1.405       .  A
C1188      C1714   1.480       .  S
C1189      C1190   1.403       .  A
C1189      H1193   1.084       .  S
C1190      C1191   1.400       .  A
C1190      C1697   1.477       .  S
C1191      H1194   1.084       .  S
C1195      C1196   1.404       .  A
C1195      C1200   1.404       .  A
C1195      C1837   1.481       .  S
C1196      C1197   1.408       .  A
C1196      H1201   1.084       .  S
C1197      C1198   1.403       .  A
C1197      C1727   1.481       .  S
C1198      C1199   1.403       .  A
C1198      H1202   1.084       .  S
C1199      C1200   1.401       .  A
C1199      C1677   1.483       .  S
C1200      H1203   1.084       .  S
C1204      C1205   1.402       .  A
C1204      C1209   1.406       .  A
C1204      C1634   1.481       .  S
C1205      C1206   1.406       .  A
C1205      H1210   1.084       .  S
C1206      C1207   1.403       .  A
C1206      C1737   1.481       .  S
C1207      C1208   1.405       .  A
C1207      H1211   1.084       .  S
C1208      C1209   1.404       .  A
C1208      C1667   1.486       .  S
C1209      H1212   1.084       .  S
C1213      C1214   1.411       .  A
C1213      C1218   1.411   1_456  A
C1213      C2697   1.490   1_455  S
C1214      C1215   1.405       .  A
C1214      H1219   1.083       .  S
C1215      C1216   1.398   1_556  A
C1215      C1767   1.480       .  S
C1216      C1217   1.397   1_455  A
C1216      H1220   1.084       .  S
C1217      C1218   1.404       .  A
C1217      C1654   1.479       .  S
C1218      H1221   1.083       .  S
C1222      C1223   1.412       .  A
C1222      C1227   1.411       .  A
C1222      C2567   1.492       .  S
C1223      C1224   1.406   1_565  A
C1223      H1228   1.083       .  S
C1224      C1225   1.399       .  A
C1224      C2234   1.485       .  S
C1225      C1226   1.398   1_545  A
C1225      H1229   1.084       .  S
C1226      C1227   1.403       .  A
C1226      C1624   1.482   1_565  S
C1227      H1230   1.083       .  S
C1231      C1232   1.412       .  A
C1231      C1236   1.412       .  A
C1231      C2487   1.492       .  S
C1232      C1233   1.403   1_655  A
C1232      H1237   1.083       .  S
C1233      C1234   1.398       .  A
C1233      C2147   1.479       .  S
C1234      C1235   1.398       .  A
C1234      H1238   1.084       .  S
C1235      C1236   1.406   1_455  A
C1235      C1614   1.483       .  S
C1236      H1239   1.083       .  S
N1240      N1241   1.324       .  A
N1240      C1244   1.351       .  A
N1240     Cu1248   2.097       .  S
N1241      C1242   1.339       .  A
N1241     Cu1247   2.068       .  S
C1242      C1243   1.379       .  A
C1242      H1245   1.082       .  S
C1243      C1244   1.388       .  A
C1243      C1315   1.468       .  S
C1244      H1246   1.082       .  S
Cu1247     N1250   2.068       .  S
Cu1248     N1258   2.096       .  S
Cu1249     N1251   2.047       .  S
Cu1249     N1257   2.048       .  S
N1250      N1251   1.318       .  A
N1250      C1254   1.346       .  A
N1251      C1252   1.340       .  A
C1252      C1253   1.380       .  A
C1252      H1255   1.082       .  S
C1253      C1254   1.385       .  A
C1253      C1277   1.467       .  S
C1254      H1256   1.082       .  S
N1257      N1258   1.321       .  A
N1257      C1261   1.337       .  A
N1258      C1259   1.351       .  A
C1259      C1260   1.392       .  A
C1259      H1262   1.082       .  S
C1260      C1261   1.379       .  A
C1260      C1604   1.481       .  S
C1261      H1263   1.081       .  S
N1264      N1265   1.324       .  A
N1264      C1268   1.351       .  A
N1264     Cu1272   2.099       .  S
N1265      C1266   1.339       .  A
N1265     Cu1271   2.065       .  S
C1266      C1267   1.380       .  A
C1266      H1269   1.082       .  S
C1267      C1268   1.389       .  A
C1267      C1291   1.469       .  S
C1268      H1270   1.082       .  S
Cu1271     N1274   2.066       .  S
Cu1272     N1282   2.097       .  S
Cu1273     N1275   2.051       .  S
Cu1273     N1281   2.050       .  S
N1274      N1275   1.319       .  A
N1274      C1278   1.346       .  A
N1275      C1276   1.341       .  A
C1276      C1277   1.381       .  A
C1276      H1279   1.082       .  S
C1277      C1278   1.384       .  A
C1278      H1280   1.082       .  S
N1281      N1282   1.322       .  A
N1281      C1285   1.338       .  A
N1282      C1283   1.352       .  A
C1283      C1284   1.392       .  A
C1283      H1286   1.081       .  S
C1284      C1285   1.379       .  A
C1284      C1594   1.481       .  S
C1285      H1287   1.082       .  S
N1288      N1289   1.324       .  A
N1288      C1292   1.351       .  A
N1288     Cu1296   2.098       .  S
N1289      C1290   1.339       .  A
N1289     Cu1295   2.067       .  S
C1290      C1291   1.379       .  A
C1290      H1293   1.082       .  S
C1291      C1292   1.388       .  A
C1292      H1294   1.082       .  S
Cu1295     N1298   2.067       .  S
Cu1296     N1306   2.097       .  S
Cu1297     N1299   2.051       .  S
Cu1297     N1305   2.051       .  S
N1298      N1299   1.318       .  A
N1298      C1302   1.346       .  A
N1299      C1300   1.341       .  A
C1300      C1301   1.381       .  A
C1300      H1303   1.082       .  S
C1301      C1302   1.385       .  A
C1301      C1325   1.467       .  S
C1302      H1304   1.082       .  S
N1305      N1306   1.322       .  A
N1305      C1309   1.338       .  A
N1306      C1307   1.351   1_655  A
C1307      C1308   1.391       .  A
C1307      H1310   1.082       .  S
C1308      C1309   1.379   1_455  A
C1308      C1584   1.480       .  S
C1309      H1311   1.081       .  S
N1312      N1313   1.324       .  A
N1312      C1316   1.351       .  A
N1312     Cu1320   2.097       .  S
N1313      C1314   1.339       .  A
N1313     Cu1319   2.066       .  S
C1314      C1315   1.379       .  A
C1314      H1317   1.082       .  S
C1315      C1316   1.388       .  A
C1316      H1318   1.082       .  S
Cu1319     N1322   2.067       .  S
Cu1320     N1330   2.096       .  S
Cu1321     N1323   2.049       .  S
Cu1321     N1329   2.049       .  S
N1322      N1323   1.318       .  A
N1322      C1326   1.346       .  A
N1323      C1324   1.341       .  A
C1324      C1325   1.381       .  A
C1324      H1327   1.082       .  S
C1325      C1326   1.385       .  A
C1326      H1328   1.082       .  S
N1329      N1330   1.322       .  A
N1329      C1333   1.337       .  A
N1330      C1331   1.351       .  A
C1331      C1332   1.390       .  A
C1331      H1334   1.082       .  S
C1332      C1333   1.377       .  A
C1332      C1574   1.476       .  S
C1333      H1335   1.082       .  S
C1336      C1337   1.404       .  A
C1336      C1341   1.402       .  A
C1336      C1647   1.480       .  S
C1337      C1338   1.410       .  A
C1337      H1342   1.084       .  S
C1338      C1339   1.405       .  A
C1338      C2047   1.483       .  S
C1339      C1340   1.400       .  A
C1339      H1343   1.084       .  S
C1340      C1341   1.398       .  A
C1340      C1597   1.471       .  S
C1341      H1344   1.084       .  S
C1345      C1346   1.406       .  A
C1345      C1350   1.405       .  A
C1345      C1827   1.483       .  S
C1346      C1347   1.407       .  A
C1346      H1351   1.084       .  S
C1347      C1348   1.402       .  A
C1347      C1617   1.481       .  S
C1348      C1349   1.403       .  A
C1348      H1352   1.084       .  S
C1349      C1350   1.402       .  A
C1349      C1587   1.484       .  S
C1350      H1353   1.083       .  S
C1354      C1355   1.406       .  A
C1354      C1359   1.404       .  A
C1354      C1857   1.481       .  S
C1355      C1356   1.403       .  A
C1355      H1360   1.083       .  S
C1356      C1357   1.403       .  A
C1356      C1607   1.485       .  S
C1357      C1358   1.402       .  A
C1357      H1361   1.083       .  S
C1358      C1359   1.407       .  A
C1358      C1564   1.481       .  S
C1359      H1362   1.084       .  S
C1363      C1364   1.405       .  A
C1363      C1368   1.402       .  A
C1363      C1637   1.481       .  S
C1364      C1365   1.409       .  A
C1364      H1369   1.084       .  S
C1365      C1366   1.404       .  A
C1365      C2077   1.479       .  S
C1366      C1367   1.401       .  A
C1366      H1370   1.084       .  S
C1367      C1368   1.399       .  A
C1367      C1577   1.477       .  S
C1368      H1371   1.084       .  S
N1372      N1373   1.323       .  A
N1372      C1376   1.351       .  A
N1372     Cu1380   2.094       .  S
N1373      C1374   1.339       .  A
N1373     Cu1379   2.066       .  S
C1374      C1375   1.379       .  A
C1374      H1377   1.082       .  S
C1375      C1376   1.388       .  A
C1375      C1447   1.468       .  S
C1376      H1378   1.082       .  S
Cu1379     N1382   2.066       .  S
Cu1380     N1390   2.093       .  S
Cu1381     N1383   2.051       .  S
Cu1381     N1389   2.051       .  S
N1382      N1383   1.319       .  A
N1382      C1386   1.345       .  A
N1383      C1384   1.341       .  A
C1384      C1385   1.381       .  A
C1384      H1387   1.082       .  S
C1385      C1386   1.384       .  A
C1385      C1409   1.467       .  S
C1386      H1388   1.082       .  S
N1389      N1390   1.322       .  A
N1389      C1393   1.337       .  A
N1390      C1391   1.351       .  A
C1391      C1392   1.391       .  A
C1391      H1394   1.081       .  S
C1392      C1393   1.379       .  A
C1392      C1554   1.479       .  S
C1393      H1395   1.082       .  S
N1396      N1397   1.323       .  A
N1396      C1400   1.351       .  A
N1396     Cu1404   2.096       .  S
N1397      C1398   1.339       .  A
N1397     Cu1403   2.064       .  S
C1398      C1399   1.379       .  A
C1398      H1401   1.082       .  S
C1399      C1400   1.388       .  A
C1399      C1423   1.468       .  S
C1400      H1402   1.082       .  S
Cu1403     N1406   2.064       .  S
Cu1404     N1414   2.095       .  S
Cu1405     N1407   2.052       .  S
Cu1405     N1413   2.053       .  S
N1406      N1407   1.318       .  A
N1406      C1410   1.345       .  A
N1407      C1408   1.342       .  A
C1408      C1409   1.382       .  A
C1408      H1411   1.082       .  S
C1409      C1410   1.384       .  A
C1410      H1412   1.082       .  S
N1413      N1414   1.323       .  A
N1413      C1417   1.338       .  A
N1414      C1415   1.351       .  A
C1415      C1416   1.389       .  A
C1415      H1418   1.082       .  S
C1416      C1417   1.377       .  A
C1416      C1544   1.475       .  S
C1417      H1419   1.082       .  S
N1420      N1421   1.324       .  A
N1420      C1424   1.351       .  A
N1420     Cu1428   2.096       .  S
N1421      C1422   1.339       .  A
N1421     Cu1427   2.067       .  S
C1422      C1423   1.379       .  A
C1422      H1425   1.082       .  S
C1423      C1424   1.388       .  A
C1424      H1426   1.082       .  S
Cu1427     N1430   2.066       .  S
Cu1428     N1438   2.095       .  S
Cu1429     N1431   2.051       .  S
Cu1429     N1437   2.051       .  S
N1430      N1431   1.318       .  A
N1430      C1434   1.345       .  A
N1431      C1432   1.341       .  A
C1432      C1433   1.381       .  A
C1432      H1435   1.082       .  S
C1433      C1434   1.384       .  A
C1433      C1457   1.467       .  S
C1434      H1436   1.082       .  S
N1437      N1438   1.322       .  A
N1437      C1441   1.338       .  A
N1438      C1439   1.351   1_565  A
C1439      C1440   1.389       .  A
C1439      H1442   1.082       .  S
C1440      C1441   1.377   1_545  A
C1440      C1537   1.475       .  S
C1441      H1443   1.082       .  S
N1444      N1445   1.323       .  A
N1444      C1448   1.351       .  A
N1444     Cu1452   2.096       .  S
N1445      C1446   1.339       .  A
N1445     Cu1451   2.065       .  S
C1446      C1447   1.379       .  A
C1446      H1449   1.082       .  S
C1447      C1448   1.388       .  A
C1448      H1450   1.082       .  S
Cu1451     N1454   2.066       .  S
Cu1452     N1462   2.095       .  S
Cu1453     N1455   2.051       .  S
Cu1453     N1461   2.051       .  S
N1454      N1455   1.318       .  A
N1454      C1458   1.345       .  A
N1455      C1456   1.341       .  A
C1456      C1457   1.381       .  A
C1456      H1459   1.082       .  S
C1457      C1458   1.384       .  A
C1458      H1460   1.082       .  S
N1461      N1462   1.322       .  A
N1461      C1465   1.338       .  A
N1462      C1463   1.351       .  A
C1463      C1464   1.391       .  A
C1463      H1466   1.082       .  S
C1464      C1465   1.378       .  A
C1464      C1524   1.479       .  S
C1465      H1467   1.082       .  S
C1468      C1469   1.404       .  A
C1468      C1473   1.402       .  A
C1468      C1774   1.480       .  S
C1469      C1470   1.409       .  A
C1469      H1474   1.084       .  S
C1470      C1471   1.405       .  A
C1470      C1627   1.481       .  S
C1471      C1472   1.401       .  A
C1471      H1475   1.084       .  S
C1472      C1473   1.398       .  A
C1472      C1534   1.475       .  S
C1473      H1476   1.084       .  S
C1477      C1478   1.403       .  A
C1477      C1482   1.403       .  A
C1477      C1987   1.478       .  S
C1478      C1479   1.409       .  A
C1478      H1483   1.084       .  S
C1479      C1480   1.404       .  A
C1479      C2097   1.479       .  S
C1480      C1481   1.400       .  A
C1480      H1484   1.084       .  S
C1481      C1482   1.397       .  A
C1481      C1527   1.470       .  S
C1482      H1485   1.084       .  S
C1486      C1487   1.403       .  A
C1486      C1491   1.402       .  A
C1486      C1957   1.478       .  S
C1487      C1488   1.409       .  A
C1487      H1492   1.084       .  S
C1488      C1489   1.405       .  A
C1488      C1707   1.481       .  S
C1489      C1490   1.401       .  A
C1489      H1493   1.084       .  S
C1490      C1491   1.398       .  A
C1490      C1547   1.475       .  S
C1491      H1494   1.085       .  S
C1495      C1496   1.403       .  A
C1495      C1500   1.403       .  A
C1495      C1747   1.479       .  S
C1496      C1497   1.398       .  A
C1496      H1501   1.084       .  S
C1497      C1498   1.399       .  A
C1497      C1557   1.470       .  S
C1498      C1499   1.403       .  A
C1498      H1502   1.084       .  S
C1499      C1500   1.409       .  A
C1499      C1514   1.480       .  S
C1500      H1503   1.084       .  S
C1504      C1505   1.412       .  A
C1504      C1509   1.412   1_556  A
C1504      C2664   1.491       .  S
C1505      C1506   1.403       .  A
C1505      H1510   1.083       .  S
C1506      C1507   1.396       .  A
C1506      C1517   1.476       .  S
C1507      C1508   1.395   1_556  A
C1507      H1511   1.085       .  S
C1508      C1509   1.403       .  A
C1508      C1567   1.477       .  S
C1509      H1512   1.083       .  S
C1513      C1514   1.403       .  A
C1513      C1518   1.394       .  A
C1513      H1520   1.083       .  S
C1514      C1515   1.409       .  A
C1515      C1516   1.400       .  A
C1515      F1522   1.357       .  S
C1516      C1517   1.402       .  A
C1516      H1521   1.083       .  S
C1517      C1518   1.406       .  A
C1518      F1519   1.358       .  S
C1523      C1524   1.406       .  A
C1523      C1528   1.393       .  A
C1523      H1530   1.083       .  S
C1524      C1525   1.407       .  A
C1525      C1526   1.402       .  A
C1525      F1532   1.357       .  S
C1526      C1527   1.403       .  A
C1526      H1531   1.083       .  S
C1527      C1528   1.400       .  A
C1528      F1529   1.358       .  S
C1533      C1534   1.401       .  A
C1533      C1538   1.394       .  A
C1533      H1540   1.084       .  S
C1534      C1535   1.406       .  A
C1535      C1536   1.402       .  A
C1535      F1542   1.357       .  S
C1536      C1537   1.404       .  A
C1536      H1541   1.083       .  S
C1537      C1538   1.407       .  A
C1538      F1539   1.358       .  S
C1543      C1544   1.404       .  A
C1543      C1548   1.394       .  A
C1543      H1550   1.083       .  S
C1544      C1545   1.406       .  A
C1545      C1546   1.402       .  A
C1545      F1552   1.357   1_565  S
C1546      C1547   1.404       .  A
C1546      H1551   1.083   1_565  S
C1547      C1548   1.403       .  A
C1548      F1549   1.358       .  S
C1553      C1554   1.407       .  A
C1553      C1558   1.393       .  A
C1553      H1560   1.083       .  S
C1554      C1555   1.407       .  A
C1555      C1556   1.401       .  A
C1555      F1562   1.356       .  S
C1556      C1557   1.403       .  A
C1556      H1561   1.083       .  S
C1557      C1558   1.400       .  A
C1558      F1559   1.358       .  S
C1563      C1564   1.403       .  A
C1563      C1568   1.395       .  A
C1563      H1570   1.083       .  S
C1564      C1565   1.409       .  A
C1565      C1566   1.399       .  A
C1565      F1572   1.357       .  S
C1566      C1567   1.402       .  A
C1566      H1571   1.083       .  S
C1567      C1568   1.407       .  A
C1568      F1569   1.358       .  S
C1573      C1574   1.404       .  A
C1573      C1578   1.393       .  A
C1573      H1580   1.083       .  S
C1574      C1575   1.406       .  A
C1575      C1576   1.402       .  A
C1575      F1582   1.357       .  S
C1576      C1577   1.405       .  A
C1576      H1581   1.083       .  S
C1577      C1578   1.404       .  A
C1578      F1579   1.358       .  S
C1583      C1584   1.404       .  A
C1583      C1588   1.402       .  A
C1583      H1590   1.083       .  S
C1584      C1585   1.408       .  A
C1585      C1586   1.394       .  A
C1585      F1592   1.357   1_455  S
C1586      C1587   1.402       .  A
C1586      H1591   1.083       .  S
C1587      C1588   1.409       .  A
C1588      F1589   1.357       .  S
C1593      C1594   1.407       .  A
C1593      C1598   1.393       .  A
C1593      H1600   1.083       .  S
C1594      C1595   1.408       .  A
C1595      C1596   1.403       .  A
C1595      F1602   1.356   1_655  S
C1596      C1597   1.403       .  A
C1596      H1601   1.083   1_655  S
C1597      C1598   1.400       .  A
C1598      F1599   1.358       .  S
C1603      C1604   1.405       .  A
C1603      C1608   1.403       .  A
C1603      H1610   1.083       .  S
C1604      C1605   1.408       .  A
C1605      C1606   1.392       .  A
C1605      F1612   1.357       .  S
C1606      C1607   1.403       .  A
C1606      H1611   1.083       .  S
C1607      C1608   1.410       .  A
C1608      F1609   1.357       .  S
C1613      C1614   1.403   1_655  A
C1613      C1618   1.400   1_655  A
C1613      H1620   1.083       .  S
C1614      C1615   1.409       .  A
C1615      C1616   1.397       .  A
C1615      F1622   1.358       .  S
C1616      C1617   1.401       .  A
C1616      H1621   1.083       .  S
C1617      C1618   1.409       .  A
C1618      F1619   1.358   1_455  S
C1623      C1624   1.403       .  A
C1623      C1628   1.400       .  A
C1623      H1630   1.083       .  S
C1624      C1625   1.408       .  A
C1625      C1626   1.396       .  A
C1625      F1632   1.358       .  S
C1626      C1627   1.403       .  A
C1626      H1631   1.083       .  S
C1627      C1628   1.409       .  A
C1628      F1629   1.357       .  S
C1633      C1634   1.403       .  A
C1633      C1638   1.395       .  A
C1633      H1640   1.083       .  S
C1634      C1635   1.408       .  A
C1635      C1636   1.402       .  A
C1635      F1642   1.357       .  S
C1636      C1637   1.404       .  A
C1636      H1641   1.083       .  S
C1637      C1638   1.407       .  A
C1638      F1639   1.358       .  S
C1643      C1644   1.404       .  A
C1643      C1648   1.395       .  A
C1643      H1650   1.083       .  S
C1644      C1645   1.408       .  A
C1645      C1646   1.402       .  A
C1645      F1652   1.357   1_655  S
C1646      C1647   1.404       .  A
C1646      H1651   1.083   1_655  S
C1647      C1648   1.405       .  A
C1648      F1649   1.358       .  S
C1653      C1654   1.403       .  A
C1653      C1658   1.399       .  A
C1653      H1660   1.083       .  S
C1654      C1655   1.408   1_655  A
C1655      C1656   1.396       .  A
C1655      F1662   1.358       .  S
C1656      C1657   1.401   1_455  A
C1656      H1661   1.083       .  S
C1657      C1658   1.408       .  A
C1658      F1659   1.358       .  S
C1663      C1664   1.405       .  A
C1663      C1668   1.403       .  A
C1663      H1670   1.083       .  S
C1664      C1665   1.409       .  A
C1665      C1666   1.394       .  A
C1665      F1672   1.357   1_565  S
C1666      C1667   1.403       .  A
C1666      H1671   1.083       .  S
C1667      C1668   1.410       .  A
C1668      F1669   1.357       .  S
C1673      C1674   1.407       .  A
C1673      C1678   1.394       .  A
C1673      H1680   1.082   1_455  S
C1674      C1675   1.407       .  A
C1675      C1676   1.401       .  A
C1675      F1682   1.356       .  S
C1676      C1677   1.406       .  A
C1676      H1681   1.083       .  S
C1677      C1678   1.404       .  A
C1678      F1679   1.358       .  S
C1683      C1684   1.406       .  A
C1683      C1688   1.402       .  A
C1683      H1690   1.083       .  S
C1684      C1685   1.404       .  A
C1685      C1686   1.394       .  A
C1685      F1692   1.358       .  S
C1686      C1687   1.406       .  A
C1686      H1691   1.082       .  S
C1687      C1688   1.407       .  A
C1688      F1689   1.357       .  S
C1693      C1694   1.405       .  A
C1693      C1698   1.395       .  A
C1693      H1700   1.083       .  S
C1694      C1695   1.406       .  A
C1695      C1696   1.402       .  A
C1695      F1702   1.357   1_545  S
C1696      C1697   1.405       .  A
C1696      H1701   1.083   1_545  S
C1697      C1698   1.403       .  A
C1698      F1699   1.358       .  S
C1703      C1704   1.403   1_545  A
C1703      C1708   1.400       .  A
C1703      H1710   1.083       .  S
C1704      C1705   1.408       .  A
C1705      C1706   1.395       .  A
C1705      F1712   1.358       .  S
C1706      C1707   1.402       .  A
C1706      H1711   1.083       .  S
C1707      C1708   1.409   1_565  A
C1708      F1709   1.357       .  S
C1713      C1714   1.406       .  A
C1713      C1718   1.402       .  A
C1713      H1720   1.083       .  S
C1714      C1715   1.404   1_545  A
C1715      C1716   1.394       .  A
C1715      F1722   1.357       .  S
C1716      C1717   1.405   1_565  A
C1716      H1721   1.084       .  S
C1717      C1718   1.407       .  A
C1718      F1719   1.357       .  S
C1723      C1724   1.405       .  A
C1723      C1728   1.395       .  A
C1723      H1730   1.084       .  S
C1724      C1725   1.405       .  A
C1725      C1726   1.400       .  A
C1725      F1732   1.357   1_455  S
C1726      C1727   1.407       .  A
C1726      H1731   1.083       .  S
C1727      C1728   1.405       .  A
C1728      F1729   1.357       .  S
C1733      C1734   1.403       .  A
C1733      C1738   1.401       .  A
C1733      H1740   1.083       .  S
C1734      C1735   1.407       .  A
C1735      C1736   1.394       .  A
C1735      F1742   1.358       .  S
C1736      C1737   1.402       .  A
C1736      H1741   1.083       .  S
C1737      C1738   1.408       .  A
C1738      F1739   1.357       .  S
C1743      C1744   1.405       .  A
C1743      C1748   1.401       .  A
C1743      H1750   1.083       .  S
C1744      C1745   1.406       .  A
C1745      C1746   1.395       .  A
C1745      F1752   1.358       .  S
C1746      C1747   1.403       .  A
C1746      H1751   1.084       .  S
C1747      C1748   1.407       .  A
C1748      F1749   1.357       .  S
C1753      C1754   1.402       .  A
C1753      C1758   1.396       .  A
C1753      H1760   1.083       .  S
C1754      C1755   1.408       .  A
C1755      C1756   1.399       .  A
C1755      F1762   1.358       .  S
C1756      C1757   1.403       .  A
C1756      H1761   1.083       .  S
C1757      C1758   1.408       .  A
C1758      F1759   1.358       .  S
C1763      C1764   1.407   1_655  A
C1763      C1768   1.400       .  A
C1763      H1770   1.083       .  S
C1764      C1765   1.405       .  A
C1765      C1766   1.394       .  A
C1765      F1772   1.358       .  S
C1766      C1767   1.405       .  A
C1766      H1771   1.084       .  S
C1767      C1768   1.406   1_455  A
C1768      F1769   1.357       .  S
C1773      C1774   1.403       .  A
C1773      C1778   1.393       .  A
C1773      H1780   1.084       .  S
C1774      C1775   1.408       .  A
C1775      C1776   1.404       .  A
C1775      F1782   1.357       .  S
C1776      C1777   1.406       .  A
C1776      H1781   1.083       .  S
C1777      C1778   1.404       .  A
C1778      F1779   1.358       .  S
C1783      C1784   1.405       .  A
C1783      C1788   1.402       .  A
C1783      H1790   1.083       .  S
C1784      C1785   1.410       .  A
C1785      C1786   1.394       .  A
C1785      F1792   1.357       .  S
C1786      C1787   1.398       .  A
C1786      H1791   1.084       .  S
C1787      C1788   1.404       .  A
C1788      F1789   1.357       .  S
C1793      C1794   1.402       .  A
C1793      C1798   1.392       .  A
C1793      H1800   1.083       .  S
C1794      C1795   1.410       .  A
C1795      C1796   1.402       .  A
C1795      F1802   1.357       .  S
C1796      C1797   1.404       .  A
C1796      H1801   1.083       .  S
C1797      C1798   1.409       .  A
C1798      F1799   1.357   1_655  S
C1803      C1804   1.404       .  A
C1803      C1808   1.402       .  A
C1803      H1810   1.083       .  S
C1804      C1805   1.408       .  A
C1805      C1806   1.393       .  A
C1805      F1812   1.357       .  S
C1806      C1807   1.403       .  A
C1806      H1811   1.083       .  S
C1807      C1808   1.410       .  A
C1808      F1809   1.357   1_455  S
C1813      C1814   1.404       .  A
C1813      C1818   1.401       .  A
C1813      H1820   1.083       .  S
C1814      C1815   1.408       .  A
C1815      C1816   1.393       .  A
C1815      F1822   1.358       .  S
C1816      C1817   1.401       .  A
C1816      H1821   1.084       .  S
C1817      C1818   1.406       .  A
C1818      F1819   1.357       .  S
C1823      C1824   1.404       .  A
C1823      C1828   1.396       .  A
C1823      H1830   1.083       .  S
C1824      C1825   1.408       .  A
C1825      C1826   1.402       .  A
C1825      F1832   1.357       .  S
C1826      C1827   1.405       .  A
C1826      H1831   1.083       .  S
C1827      C1828   1.407       .  A
C1828      F1829   1.358       .  S
C1833      C1834   1.403       .  A
C1833      C1838   1.394       .  A
C1833      H1840   1.083       .  S
C1834      C1835   1.408       .  A
C1835      C1836   1.403       .  A
C1835      F1842   1.358       .  S
C1836      C1837   1.405       .  A
C1836      H1841   1.083       .  S
C1837      C1838   1.405       .  A
C1838      F1839   1.358       .  S
C1843      C1844   1.403   1_565  A
C1843      C1848   1.392       .  A
C1843      H1850   1.084       .  S
C1844      C1845   1.408       .  A
C1845      C1846   1.404       .  A
C1845      F1852   1.357       .  S
C1846      C1847   1.405       .  A
C1846      H1851   1.083       .  S
C1847      C1848   1.403   1_545  A
C1848      F1849   1.358       .  S
C1853      C1854   1.405       .  A
C1853      C1858   1.395       .  A
C1853      H1860   1.083       .  S
C1854      C1855   1.407       .  A
C1855      C1856   1.401       .  A
C1855      F1862   1.357       .  S
C1856      C1857   1.405       .  A
C1856      H1861   1.083       .  S
C1857      C1858   1.405       .  A
C1858      F1859   1.358       .  S
C1863      C1864   1.402       .  A
C1863      C1868   1.396       .  A
C1863      H1870   1.083       .  S
C1864      C1865   1.409       .  A
C1865      C1866   1.399       .  A
C1865      F1872   1.357       .  S
C1866      C1867   1.403       .  A
C1866      H1871   1.083       .  S
C1867      C1868   1.408       .  A
C1868      F1869   1.358       .  S
C1873      C1874   1.411       .  A
C1873      C1878   1.394       .  A
C1873      H1880   1.080       .  S
C1874      C1875   1.411       .  A
C1875      C1876   1.401       .  A
C1875      F1882   1.355       .  S
C1876      C1877   1.402       .  A
C1876      H1881   1.083       .  S
C1877      C1878   1.398       .  A
C1878      F1879   1.358       .  S
C1883      C1884   1.402       .  A
C1883      C1888   1.392       .  A
C1883      H1890   1.083       .  S
C1884      C1885   1.409       .  A
C1885      C1886   1.402       .  A
C1885      F1892   1.357       .  S
C1886      C1887   1.404       .  A
C1886      H1891   1.083       .  S
C1887      C1888   1.409       .  A
C1888      F1889   1.357   1_565  S
C1893      C1894   1.404       .  A
C1893      C1898   1.393       .  A
C1893      H1900   1.083       .  S
C1894      C1895   1.406       .  A
C1895      C1896   1.402       .  A
C1895      F1902   1.357   1_545  S
C1896      C1897   1.404       .  A
C1896      H1901   1.083   1_545  S
C1897      C1898   1.403       .  A
C1898      F1899   1.358       .  S
C1903      C1904   1.405       .  A
C1903      C1908   1.394       .  A
C1903      H1910   1.083       .  S
C1904      C1905   1.406       .  A
C1905      C1906   1.401       .  A
C1905      F1912   1.357       .  S
C1906      C1907   1.404       .  A
C1906      H1911   1.083       .  S
C1907      C1908   1.403       .  A
C1908      F1909   1.358       .  S
C1913      C1914   1.407       .  A
C1913      C1918   1.398       .  A
C1913      H1920   1.083       .  S
C1914      C1915   1.404       .  A
C1915      C1916   1.396       .  A
C1915      F1922   1.357       .  S
C1916      C1917   1.406       .  A
C1916      H1921   1.084       .  S
C1917      C1918   1.404       .  A
C1918      F1919   1.357       .  S
C1923      C1924   1.402       .  A
C1923      C1928   1.399       .  A
C1923      H1930   1.083   1_565  S
C1924      C1925   1.409       .  A
C1925      C1926   1.396       .  A
C1925      F1932   1.358       .  S
C1926      C1927   1.401       .  A
C1926      H1931   1.083       .  S
C1927      C1928   1.408       .  A
C1928      F1929   1.358       .  S
C1933      C1934   1.403   1_565  A
C1933      C1938   1.399       .  A
C1933      H1940   1.083       .  S
C1934      C1935   1.407       .  A
C1935      C1936   1.396       .  A
C1935      F1942   1.358       .  S
C1936      C1937   1.403       .  A
C1936      H1941   1.083       .  S
C1937      C1938   1.409   1_545  A
C1938      F1939   1.357       .  S
C1943      C1944   1.405       .  A
C1943      C1948   1.395       .  A
C1943      H1950   1.083       .  S
C1944      C1945   1.408       .  A
C1945      C1946   1.402       .  A
C1945      F1952   1.357   1_455  S
C1946      C1947   1.405       .  A
C1946      H1951   1.083   1_455  S
C1947      C1948   1.405       .  A
C1948      F1949   1.358       .  S
C1953      C1954   1.405       .  A
C1953      C1958   1.404       .  A
C1953      H1960   1.083       .  S
C1954      C1955   1.404   1_565  A
C1955      C1956   1.392       .  A
C1955      F1962   1.358       .  S
C1956      C1957   1.402   1_545  A
C1956      H1961   1.084       .  S
C1957      C1958   1.407       .  A
C1958      F1959   1.357       .  S
C1963      C1964   1.403   1_545  A
C1963      C1968   1.400       .  A
C1963      H1970   1.083       .  S
C1964      C1965   1.407       .  A
C1965      C1966   1.396       .  A
C1965      F1972   1.358       .  S
C1966      C1967   1.403       .  A
C1966      H1971   1.083       .  S
C1967      C1968   1.409   1_565  A
C1968      F1969   1.357       .  S
C1973      C1974   1.405       .  A
C1973      C1978   1.401       .  A
C1973      H1980   1.083       .  S
C1974      C1975   1.406       .  A
C1975      C1976   1.394       .  A
C1975      F1982   1.358       .  S
C1976      C1977   1.403       .  A
C1976      H1981   1.083       .  S
C1977      C1978   1.407       .  A
C1978      F1979   1.357       .  S
C1983      C1984   1.405       .  A
C1983      C1988   1.403       .  A
C1983      H1990   1.083       .  S
C1984      C1985   1.404       .  A
C1985      C1986   1.392       .  A
C1985      F1992   1.358       .  S
C1986      C1987   1.402       .  A
C1986      H1991   1.084       .  S
C1987      C1988   1.408       .  A
C1988      F1989   1.357       .  S
C1993      C1994   1.405       .  A
C1993      C1998   1.394       .  A
C1993      H2000   1.083       .  S
C1994      C1995   1.406       .  A
C1995      C1996   1.401       .  A
C1995      F2002   1.357       .  S
C1996      C1997   1.403       .  A
C1996      H2001   1.083       .  S
C1997      C1998   1.402       .  A
C1998      F1999   1.358       .  S
C2003      C2004   1.404       .  A
C2003      C2008   1.403       .  A
C2003      H2010   1.083       .  S
C2004      C2005   1.408       .  A
C2005      C2006   1.393       .  A
C2005      F2012   1.358       .  S
C2006      C2007   1.401       .  A
C2006      H2011   1.084       .  S
C2007      C2008   1.406       .  A
C2008      F2009   1.357       .  S
C2013      C2014   1.405       .  A
C2013      C2018   1.401       .  A
C2013      H2020   1.083   1_455  S
C2014      C2015   1.411       .  A
C2015      C2016   1.394       .  A
C2015      F2022   1.357       .  S
C2016      C2017   1.398       .  A
C2016      H2021   1.084       .  S
C2017      C2018   1.403       .  A
C2018      F2019   1.357   1_455  S
C2023      C2024   1.405       .  A
C2023      C2028   1.394       .  A
C2023      H2030   1.083       .  S
C2024      C2025   1.405       .  A
C2025      C2026   1.402       .  A
C2025      F2032   1.357   1_565  S
C2026      C2027   1.404       .  A
C2026      H2031   1.083   1_565  S
C2027      C2028   1.403       .  A
C2028      F2029   1.358       .  S
C2033      C2034   1.403   1_455  A
C2033      C2038   1.400       .  A
C2033      H2040   1.083       .  S
C2034      C2035   1.408       .  A
C2035      C2036   1.396       .  A
C2035      F2042   1.358       .  S
C2036      C2037   1.402   1_655  A
C2036      H2041   1.083       .  S
C2037      C2038   1.409       .  A
C2038      F2039   1.358       .  S
C2043      C2044   1.405       .  A
C2043      C2048   1.395       .  A
C2043      H2050   1.084       .  S
C2044      C2045   1.406   1_655  A
C2045      C2046   1.401       .  A
C2045      F2052   1.357       .  S
C2046      C2047   1.407   1_455  A
C2046      H2051   1.083       .  S
C2047      C2048   1.406       .  A
C2048      F2049   1.358       .  S
C2053      C2054   1.404       .  A
C2053      C2058   1.395       .  A
C2053      H2060   1.084       .  S
C2054      C2055   1.405       .  A
C2055      C2056   1.401       .  A
C2055      F2062   1.357       .  S
C2056      C2057   1.407       .  A
C2056      H2061   1.083       .  S
C2057      C2058   1.407       .  A
C2058      F2059   1.358       .  S
C2063      C2064   1.403       .  A
C2063      C2068   1.400       .  A
C2063      H2070   1.083       .  S
C2064      C2065   1.408       .  A
C2065      C2066   1.395       .  A
C2065      F2072   1.358       .  S
C2066      C2067   1.402       .  A
C2066      H2071   1.083       .  S
C2067      C2068   1.408       .  A
C2068      F2069   1.357       .  S
C2073      C2074   1.403       .  A
C2073      C2078   1.401       .  A
C2073      H2080   1.083       .  S
C2074      C2075   1.408       .  A
C2075      C2076   1.396       .  A
C2075      F2082   1.358       .  S
C2076      C2077   1.401       .  A
C2076      H2081   1.083       .  S
C2077      C2078   1.408       .  A
C2078      F2079   1.357       .  S
C2083      C2084   1.402       .  A
C2083      C2088   1.394       .  A
C2083      H2090   1.083       .  S
C2084      C2085   1.409       .  A
C2085      C2086   1.401       .  A
C2085      F2092   1.357       .  S
C2086      C2087   1.403       .  A
C2086      H2091   1.083       .  S
C2087      C2088   1.406       .  A
C2088      F2089   1.358       .  S
C2093      C2094   1.403       .  A
C2093      C2098   1.400       .  A
C2093      H2100   1.083       .  S
C2094      C2095   1.408       .  A
C2095      C2096   1.395       .  A
C2095      F2102   1.358       .  S
C2096      C2097   1.402       .  A
C2096      H2101   1.083       .  S
C2097      C2098   1.408       .  A
C2098      F2099   1.357       .  S
C2103      C2104   1.404       .  A
C2103      C2108   1.395       .  A
C2103      H2110   1.084       .  S
C2104      C2105   1.405       .  A
C2105      C2106   1.400       .  A
C2105      F2112   1.357       .  S
C2106      C2107   1.407       .  A
C2106      H2111   1.083       .  S
C2107      C2108   1.407       .  A
C2108      F2109   1.358       .  S
C2113      C2114   1.407       .  A
C2113      C2118   1.399       .  A
C2113      H2120   1.083       .  S
C2114      C2115   1.405       .  A
C2115      C2116   1.394       .  A
C2115      F2122   1.358       .  S
C2116      C2117   1.405       .  A
C2116      H2121   1.084       .  S
C2117      C2118   1.404       .  A
C2118      F2119   1.357   1_655  S
C2123      C2124   1.403       .  A
C2123      C2128   1.400       .  A
C2123      H2130   1.083   1_455  S
C2124      C2125   1.409       .  A
C2125      C2126   1.396       .  A
C2125      F2132   1.358       .  S
C2126      C2127   1.402       .  A
C2126      H2131   1.083       .  S
C2127      C2128   1.409       .  A
C2128      F2129   1.357       .  S
C2133      C2134   1.402       .  A
C2133      C2138   1.396       .  A
C2133      H2140   1.083       .  S
C2134      C2135   1.409       .  A
C2135      C2136   1.401       .  A
C2135      F2142   1.358       .  S
C2136      C2137   1.403       .  A
C2136      H2141   1.083       .  S
C2137      C2138   1.408       .  A
C2138      F2139   1.358       .  S
C2143      C2144   1.403       .  A
C2143      C2148   1.395       .  A
C2143      H2150   1.083       .  S
C2144      C2145   1.409       .  A
C2145      C2146   1.401       .  A
C2145      F2152   1.357       .  S
C2146      C2147   1.403       .  A
C2146      H2151   1.083   1_455  S
C2147      C2148   1.407       .  A
C2148      F2149   1.358       .  S
C2153      C2154   1.403       .  A
C2153      C2158   1.393       .  A
C2153      H2160   1.083       .  S
C2154      C2155   1.410       .  A
C2155      C2156   1.402       .  A
C2155      F2162   1.357       .  S
C2156      C2157   1.405       .  A
C2156      H2161   1.083       .  S
C2157      C2158   1.409       .  A
C2158      F2159   1.357       .  S
C2163      C2164   1.404       .  A
C2163      C2168   1.402       .  A
C2163      H2170   1.083       .  S
C2164      C2165   1.407       .  A
C2165      C2166   1.393       .  A
C2165      F2172   1.358       .  S
C2166      C2167   1.402       .  A
C2166      H2171   1.084       .  S
C2167      C2168   1.407       .  A
C2168      F2169   1.357       .  S
C2173      C2174   1.408       .  A
C2173      C2178   1.394       .  A
C2173      H2180   1.082       .  S
C2174      C2175   1.408       .  A
C2175      C2176   1.402       .  A
C2175      F2182   1.356       .  S
C2176      C2177   1.407       .  A
C2176      H2181   1.083       .  S
C2177      C2178   1.404       .  A
C2178      F2179   1.358       .  S
C2183      C2184   1.406       .  A
C2183      C2188   1.392       .  A
C2183      H2190   1.082       .  S
C2184      C2185   1.408       .  A
C2185      C2186   1.403       .  A
C2185      F2192   1.356       .  S
C2186      C2187   1.406       .  A
C2186      H2191   1.083       .  S
C2187      C2188   1.404       .  A
C2188      F2189   1.358       .  S
C2193      C2194   1.404       .  A
C2193      C2198   1.395       .  A
C2193      H2200   1.083       .  S
C2194      C2195   1.409       .  A
C2195      C2196   1.402       .  A
C2195      F2202   1.357       .  S
C2196      C2197   1.403       .  A
C2196      H2201   1.083   1_545  S
C2197      C2198   1.407       .  A
C2198      F2199   1.358       .  S
C2203      C2204   1.405       .  A
C2203      C2208   1.401       .  A
C2203      H2210   1.083       .  S
C2204      C2205   1.406       .  A
C2205      C2206   1.395       .  A
C2205      F2212   1.358       .  S
C2206      C2207   1.404       .  A
C2206      H2211   1.083       .  S
C2207      C2208   1.407       .  A
C2208      F2209   1.357       .  S
C2213      C2214   1.407       .  A
C2213      C2218   1.400       .  A
C2213      H2220   1.083       .  S
C2214      C2215   1.405       .  A
C2215      C2216   1.394       .  A
C2215      F2222   1.358       .  S
C2216      C2217   1.405       .  A
C2216      H2221   1.084       .  S
C2217      C2218   1.405       .  A
C2218      F2219   1.357   1_565  S
C2223      C2224   1.405       .  A
C2223      C2228   1.402       .  A
C2223      H2230   1.083       .  S
C2224      C2225   1.405       .  A
C2225      C2226   1.395       .  A
C2225      F2232   1.358       .  S
C2226      C2227   1.405       .  A
C2226      H2231   1.083       .  S
C2227      C2228   1.407       .  A
C2228      F2229   1.357       .  S
C2233      C2234   1.407       .  A
C2233      C2238   1.396       .  A
C2233      H2240   1.083       .  S
C2234      C2235   1.407       .  A
C2235      C2236   1.401       .  A
C2235      F2242   1.357       .  S
C2236      C2237   1.407       .  A
C2236      H2241   1.083       .  S
C2237      C2238   1.403       .  A
C2238      F2239   1.357       .  S
C2243      C2244   1.400       .  A
C2243      C2248   1.396       .  A
C2243      H2250   1.083       .  S
C2244      C2245   1.408       .  A
C2245      C2246   1.402       .  A
C2245      F2252   1.357       .  S
C2246      C2247   1.403       .  A
C2246      H2251   1.083       .  S
C2247      C2248   1.408       .  A
C2248      F2249   1.358       .  S
C2253      C2254   1.402       .  A
C2253      C2258   1.393       .  A
C2253      H2260   1.083       .  S
C2254      C2255   1.408       .  A
C2255      C2256   1.402       .  A
C2255      F2262   1.357       .  S
C2256      C2257   1.403       .  A
C2256      H2261   1.083       .  S
C2257      C2258   1.406       .  A
C2258      F2259   1.358       .  S
C2263      C2264   1.405       .  A
C2263      C2268   1.403       .  A
C2263      H2270   1.083       .  S
C2264      C2265   1.408       .  A
C2265      C2266   1.392       .  A
C2265      F2272   1.357       .  S
C2266      C2267   1.403       .  A
C2266      H2271   1.083       .  S
C2267      C2268   1.410       .  A
C2268      F2269   1.357       .  S
C2273      C2274   1.406       .  A
C2273      C2278   1.403       .  A
C2273      H2280   1.083       .  S
C2274      C2275   1.405       .  A
C2275      C2276   1.392       .  A
C2275      F2282   1.358       .  S
C2276      C2277   1.404       .  A
C2276      H2281   1.083       .  S
C2277      C2278   1.406       .  A
C2278      F2279   1.357       .  S
C2283      C2284   1.406       .  A
C2283      C2288   1.393       .  A
C2283      H2290   1.083       .  S
C2284      C2285   1.406       .  A
C2285      C2286   1.401       .  A
C2285      F2292   1.357       .  S
C2286      C2287   1.404       .  A
C2286      H2291   1.083       .  S
C2287      C2288   1.402       .  A
C2288      F2289   1.358       .  S
C2293      C2294   1.403       .  A
C2293      C2298   1.394       .  A
C2293      H2300   1.083       .  S
C2294      C2295   1.408       .  A
C2295      C2296   1.402       .  A
C2295      F2302   1.357       .  S
C2296      C2297   1.404       .  A
C2296      H2301   1.083       .  S
C2297      C2298   1.406       .  A
C2298      F2299   1.358       .  S
C2303      C2304   1.403       .  A
C2303      C2308   1.401       .  A
C2303      H2310   1.083       .  S
C2304      C2305   1.406       .  A
C2305      C2306   1.395       .  A
C2305      F2312   1.358       .  S
C2306      C2307   1.404       .  A
C2306      H2311   1.083       .  S
C2307      C2308   1.409       .  A
C2308      F2309   1.357       .  S
C2313      C2314   1.406       .  A
C2313      C2318   1.404       .  A
C2313      H2320   1.083       .  S
C2314      C2315   1.406       .  A
C2315      C2316   1.394       .  A
C2315      F2322   1.358       .  S
C2316      C2317   1.404       .  A
C2316      H2321   1.084       .  S
C2317      C2318   1.409       .  A
C2318      F2319   1.357       .  S
C2323      C2324   1.407       .  A
C2323      C2328   1.400       .  A
C2323      H2330   1.083       .  S
C2324      C2325   1.404       .  A
C2325      C2326   1.396       .  A
C2325      F2332   1.357       .  S
C2326      C2327   1.407       .  A
C2326      H2331   1.083       .  S
C2327      C2328   1.406       .  A
C2328      F2329   1.357       .  S
C2333      C2334   1.406       .  A
C2333      C2338   1.404       .  A
C2333      H2340   1.083       .  S
C2334      C2335   1.406       .  A
C2335      C2336   1.394       .  A
C2335      F2342   1.358       .  S
C2336      C2337   1.403       .  A
C2336      H2341   1.084       .  S
C2337      C2338   1.408       .  A
C2338      F2339   1.357       .  S
C2343      C2344   1.402       .  A
C2343      C2348   1.396       .  A
C2343      H2350   1.083       .  S
C2344      C2345   1.409       .  A
C2345      C2346   1.401       .  A
C2345      F2352   1.358       .  S
C2346      C2347   1.403       .  A
C2346      H2351   1.083       .  S
C2347      C2348   1.408       .  A
C2348      F2349   1.358       .  S
C2353      C2354   1.403       .  A
C2353      C2358   1.395       .  A
C2353      H2360   1.083       .  S
C2354      C2355   1.408       .  A
C2355      C2356   1.402       .  A
C2355      F2362   1.357       .  S
C2356      C2357   1.404       .  A
C2356      H2361   1.083       .  S
C2357      C2358   1.407       .  A
C2358      F2359   1.358       .  S
C2363      C2364   1.407       .  A
C2363      C2368   1.401       .  A
C2363      H2370   1.083       .  S
C2364      C2365   1.406       .  A
C2365      C2366   1.394       .  A
C2365      F2372   1.358       .  S
C2366      C2367   1.405       .  A
C2366      H2371   1.084       .  S
C2367      C2368   1.406       .  A
C2368      F2369   1.357       .  S
C2373      C2374   1.405       .  A
C2373      C2378   1.404       .  A
C2373      H2380   1.083       .  S
C2374      C2375   1.408       .  A
C2375      C2376   1.394       .  A
C2375      F2382   1.357       .  S
C2376      C2377   1.403       .  A
C2376      H2381   1.083       .  S
C2377      C2378   1.410       .  A
C2378      F2379   1.357       .  S
C2383      C2384   1.407       .  A
C2383      C2388   1.394       .  A
C2383      H2390   1.082       .  S
C2384      C2385   1.408       .  A
C2385      C2386   1.402       .  A
C2385      F2392   1.356       .  S
C2386      C2387   1.407       .  A
C2386      H2391   1.083       .  S
C2387      C2388   1.405       .  A
C2388      F2389   1.358       .  S
C2393      C2394   1.404       .  A
C2393      C2398   1.402       .  A
C2393      H2400   1.083       .  S
C2394      C2395   1.410       .  A
C2395      C2396   1.394       .  A
C2395      F2402   1.357       .  S
C2396      C2397   1.403       .  A
C2396      H2401   1.083       .  S
C2397      C2398   1.411       .  A
C2398      F2399   1.357       .  S
C2403      C2404   1.405       .  A
C2403      C2408   1.402       .  A
C2403      H2410   1.083       .  S
C2404      C2405   1.410       .  A
C2405      C2406   1.395       .  A
C2405      F2412   1.357       .  S
C2406      C2407   1.399       .  A
C2406      H2411   1.084       .  S
C2407      C2408   1.405       .  A
C2408      F2409   1.357       .  S
C2413      C2414   1.405       .  A
C2413      C2418   1.399       .  A
C2413      H2420   1.083       .  S
C2414      C2415   1.408       .  A
C2415      C2416   1.401       .  A
C2415      F2422   1.357       .  S
C2416      C2417   1.406       .  A
C2416      H2421   1.083       .  S
C2417      C2418   1.409       .  A
C2418      F2419   1.357       .  S
C2423      C2424   1.406       .  A
C2423      C2428   1.401       .  A
C2423      H2430   1.083       .  S
C2424      C2425   1.410       .  A
C2425      C2426   1.398       .  A
C2425      F2432   1.357       .  S
C2426      C2427   1.405       .  A
C2426      H2431   1.083       .  S
C2427      C2428   1.410       .  A
C2428      F2429   1.357       .  S
C2433      C2434   1.405       .  A
C2433      C2438   1.399       .  A
C2433      H2440   1.083       .  S
C2434      C2435   1.408       .  A
C2435      C2436   1.399       .  A
C2435      F2442   1.357       .  S
C2436      C2437   1.406       .  A
C2436      H2441   1.083       .  S
C2437      C2438   1.408       .  A
C2438      F2439   1.357       .  S
C2443      C2444   1.405       .  A
C2443      C2448   1.400       .  A
C2443      H2450   1.083       .  S
C2444      C2445   1.408       .  A
C2445      C2446   1.400       .  A
C2445      F2452   1.357       .  S
C2446      C2447   1.406       .  A
C2446      H2451   1.083       .  S
C2447      C2448   1.409       .  A
C2448      F2449   1.357       .  S
C2453      C2454   1.406       .  A
C2453      C2458   1.400       .  A
C2453      H2460   1.083       .  S
C2454      C2455   1.409       .  A
C2455      C2456   1.399       .  A
C2455      F2462   1.357       .  S
C2456      C2457   1.406       .  A
C2456      H2461   1.083       .  S
C2457      C2458   1.409       .  A
C2458      F2459   1.357       .  S
C2463      C2464   1.405       .  A
C2463      C2468   1.399       .  A
C2463      H2470   1.083       .  S
C2464      C2465   1.408       .  A
C2465      C2466   1.399       .  A
C2465      F2472   1.358       .  S
C2466      C2467   1.405       .  A
C2466      H2471   1.083       .  S
C2467      C2468   1.408       .  A
C2468      F2469   1.357       .  S
C2473      C2474   1.405       .  A
C2473      C2478   1.399       .  A
C2473      H2480   1.083       .  S
C2474      C2475   1.408       .  A
C2475      C2476   1.399       .  A
C2475      F2482   1.357       .  S
C2476      C2477   1.405       .  A
C2476      H2481   1.083       .  S
C2477      C2478   1.408       .  A
C2478      F2479   1.358       .  S
C2483      C2484   1.406       .  A
C2483      C2488   1.398       .  A
C2483      H2490   1.083       .  S
C2484      C2485   1.410       .  A
C2485      C2486   1.401       .  A
C2485      F2492   1.357       .  S
C2486      C2487   1.407       .  A
C2486      H2491   1.083       .  S
C2487      C2488   1.409       .  A
C2488      F2489   1.357       .  S
C2493      C2494   1.405       .  A
C2493      C2498   1.400       .  A
C2493      H2500   1.083       .  S
C2494      C2495   1.408       .  A
C2495      C2496   1.398       .  A
C2495      F2502   1.357       .  S
C2496      C2497   1.405       .  A
C2496      H2501   1.083       .  S
C2497      C2498   1.409       .  A
C2498      F2499   1.357       .  S
C2503      C2504   1.405       .  A
C2503      C2508   1.400       .  A
C2503      H2510   1.083       .  S
C2504      C2505   1.407       .  A
C2505      C2506   1.399       .  A
C2505      F2512   1.358       .  S
C2506      C2507   1.406       .  A
C2506      H2511   1.083       .  S
C2507      C2508   1.408       .  A
C2508      F2509   1.357       .  S
C2513      C2514   1.406       .  A
C2513      C2518   1.400       .  A
C2513      H2520   1.083       .  S
C2514      C2515   1.408       .  A
C2515      C2516   1.399       .  A
C2515      F2522   1.357       .  S
C2516      C2517   1.406       .  A
C2516      H2521   1.083       .  S
C2517      C2518   1.408       .  A
C2518      F2519   1.357       .  S
C2523      C2524   1.405       .  A
C2523      C2528   1.399       .  A
C2523      H2530   1.083       .  S
C2524      C2525   1.408       .  A
C2525      C2526   1.399       .  A
C2525      F2532   1.357       .  S
C2526      C2527   1.405       .  A
C2526      H2531   1.083       .  S
C2527      C2528   1.408       .  A
C2528      F2529   1.358       .  S
C2533      C2534   1.406       .  A
C2533      C2538   1.398       .  A
C2533      H2540   1.083       .  S
C2534      C2535   1.409       .  A
C2535      C2536   1.399       .  A
C2535      F2542   1.357       .  S
C2536      C2537   1.406       .  A
C2536      H2541   1.083       .  S
C2537      C2538   1.409       .  A
C2538      F2539   1.357       .  S
C2543      C2544   1.407       .  A
C2543      C2548   1.399       .  A
C2543      H2550   1.083       .  S
C2544      C2545   1.409       .  A
C2545      C2546   1.398       .  A
C2545      F2552   1.357       .  S
C2546      C2547   1.406       .  A
C2546      H2551   1.083       .  S
C2547      C2548   1.409       .  A
C2548      F2549   1.357       .  S
C2553      C2554   1.404       .  A
C2553      C2558   1.398       .  A
C2553      H2560   1.083       .  S
C2554      C2555   1.407       .  A
C2555      C2556   1.398       .  A
C2555      F2562   1.358       .  S
C2556      C2557   1.404       .  A
C2556      H2561   1.083       .  S
C2557      C2558   1.407       .  A
C2558      F2559   1.357       .  S
C2563      C2564   1.407       .  A
C2563      C2568   1.401       .  A
C2563      H2570   1.083       .  S
C2564      C2565   1.409       .  A
C2565      C2566   1.398       .  A
C2565      F2572   1.358       .  S
C2566      C2567   1.406       .  A
C2566      H2571   1.083       .  S
C2567      C2568   1.410       .  A
C2568      F2569   1.357       .  S
C2573      C2574   1.406       .  A
C2573      C2578   1.398       .  A
C2573      H2580   1.083       .  S
C2574      C2575   1.410       .  A
C2575      C2576   1.400       .  A
C2575      F2582   1.357       .  S
C2576      C2577   1.406       .  A
C2576      H2581   1.083       .  S
C2577      C2578   1.409       .  A
C2578      F2579   1.357       .  S
C2583      C2584   1.405       .  A
C2583      C2588   1.397       .  A
C2583      H2590   1.083       .  S
C2584      C2585   1.408       .  A
C2585      C2586   1.399       .  A
C2585      F2592   1.357       .  S
C2586      C2587   1.406       .  A
C2586      H2591   1.083       .  S
C2587      C2588   1.407       .  A
C2588      F2589   1.357       .  S
C2593      C2594   1.405       .  A
C2593      C2598   1.398       .  A
C2593      H2600   1.083       .  S
C2594      C2595   1.408       .  A
C2595      C2596   1.400       .  A
C2595      F2602   1.357       .  S
C2596      C2597   1.405       .  A
C2596      H2601   1.083       .  S
C2597      C2598   1.408       .  A
C2598      F2599   1.357       .  S
C2603      C2604   1.406       .  A
C2603      C2608   1.400       .  A
C2603      H2610   1.083       .  S
C2604      C2605   1.409       .  A
C2605      C2606   1.398       .  A
C2605      F2612   1.357       .  S
C2606      C2607   1.406       .  A
C2606      H2611   1.083       .  S
C2607      C2608   1.410       .  A
C2608      F2609   1.357       .  S
C2613      C2614   1.405       .  A
C2613      C2618   1.400       .  A
C2613      H2620   1.083       .  S
C2614      C2615   1.408       .  A
C2615      C2616   1.398       .  A
C2615      F2622   1.358       .  S
C2616      C2617   1.405       .  A
C2616      H2621   1.083       .  S
C2617      C2618   1.408       .  A
C2618      F2619   1.357       .  S
C2623      C2624   1.405       .  A
C2623      C2628   1.399       .  A
C2623      H2630   1.083       .  S
C2624      C2625   1.408       .  A
C2625      C2626   1.400       .  A
C2625      F2632   1.357       .  S
C2626      C2627   1.405       .  A
C2626      H2631   1.083       .  S
C2627      C2628   1.408       .  A
C2628      F2629   1.357       .  S
C2633      C2634   1.405       .  A
C2633      C2638   1.397       .  A
C2633      H2640   1.083       .  S
C2634      C2635   1.408       .  A
C2635      C2636   1.400       .  A
C2635      F2642   1.357       .  S
C2636      C2637   1.406       .  A
C2636      H2641   1.083       .  S
C2637      C2638   1.408       .  A
C2638      F2639   1.358       .  S
C2643      C2644   1.406       .  A
C2643      C2648   1.399       .  A
C2643      H2650   1.083       .  S
C2644      C2645   1.408       .  A
C2645      C2646   1.399       .  A
C2645      F2652   1.357       .  S
C2646      C2647   1.406       .  A
C2646      H2651   1.083       .  S
C2647      C2648   1.407       .  A
C2648      F2649   1.357       .  S
C2653      C2654   1.406       .  A
C2653      C2658   1.399       .  A
C2653      H2660   1.083       .  S
C2654      C2655   1.408   1_554  A
C2655      C2656   1.399       .  A
C2655      F2662   1.357       .  S
C2656      C2657   1.405   1_556  A
C2656      H2661   1.083       .  S
C2657      C2658   1.408       .  A
C2658      F2659   1.358       .  S
C2663      C2664   1.407   1_554  A
C2663      C2668   1.399       .  A
C2663      H2670   1.083       .  S
C2664      C2665   1.409       .  A
C2665      C2666   1.398       .  A
C2665      F2672   1.357       .  S
C2666      C2667   1.406   1_556  A
C2666      H2671   1.083       .  S
C2667      C2668   1.409       .  A
C2668      F2669   1.357       .  S
C2673      C2674   1.406       .  A
C2673      C2678   1.399       .  A
C2673      H2680   1.083       .  S
C2674      C2675   1.408   1_564  A
C2675      C2676   1.399       .  A
C2675      F2682   1.357       .  S
C2676      C2677   1.405   1_546  A
C2676      H2681   1.083       .  S
C2677      C2678   1.407       .  A
C2678      F2679   1.358       .  S
C2683      C2684   1.405       .  A
C2683      C2688   1.399       .  A
C2683      H2690   1.083       .  S
C2684      C2685   1.408   1_554  A
C2685      C2686   1.398       .  A
C2685      F2692   1.358       .  S
C2686      C2687   1.405   1_556  A
C2686      H2691   1.083       .  S
C2687      C2688   1.408       .  A
C2688      F2689   1.357       .  S
C2693      C2694   1.406   1_456  A
C2693      C2698   1.399       .  A
C2693      H2700   1.083       .  S
C2694      C2695   1.409       .  A
C2695      C2696   1.399       .  A
C2695      F2702   1.357       .  S
C2696      C2697   1.406   1_554  A
C2696      H2701   1.083       .  S
C2697      C2698   1.409   1_655  A
C2698      F2699   1.357       .  S
C2703      C2704   1.405   1_556  A
C2703      C2708   1.398       .  A
C2703      H2710   1.083       .  S
C2704      C2705   1.408       .  A
C2705      C2706   1.398       .  A
C2705      F2712   1.357       .  S
C2706      C2707   1.405       .  A
C2706      H2711   1.083       .  S
C2707      C2708   1.408   1_554  A
C2708      F2709   1.358       .  S
C2713      C2714   1.405   1_556  A
C2713      C2718   1.399       .  A
C2713      H2720   1.083       .  S
C2714      C2715   1.407       .  A
C2715      C2716   1.398       .  A
C2715      F2722   1.357       .  S
C2716      C2717   1.405       .  A
C2716      H2721   1.083       .  S
C2717      C2718   1.408   1_554  A
C2718      F2719   1.357       .  S
C2723      C2724   1.406       .  A
C2723      C2728   1.399       .  A
C2723      H2730   1.083       .  S
C2724      C2725   1.409   1_654  A
C2725      C2726   1.400       .  A
C2725      F2732   1.357       .  S
C2726      C2727   1.406   1_456  A
C2726      H2731   1.083       .  S
C2727      C2728   1.409       .  A
C2728      F2729   1.357       .  S
C2733      C2734   1.406   1_556  A
C2733      C2738   1.399       .  A
C2733      H2740   1.083       .  S
C2734      C2735   1.408       .  A
C2735      C2736   1.398       .  A
C2735      F2742   1.357       .  S
C2736      C2737   1.405       .  A
C2736      H2741   1.083       .  S
C2737      C2738   1.408   1_554  A
C2738      F2739   1.357       .  S
C2743      C2744   1.405   1_546  A
C2743      C2748   1.399       .  A
C2743      H2750   1.083       .  S
C2744      C2745   1.408       .  A
C2745      C2746   1.399       .  A
C2745      F2752   1.357       .  S
C2746      C2747   1.404       .  A
C2746      H2751   1.083       .  S
C2747      C2748   1.407   1_564  A
C2748      F2749   1.358       .  S
C2753      C2754   1.405       .  A
C2753      C2758   1.398       .  A
C2753      H2760   1.083       .  S
C2754      C2755   1.408   1_554  A
C2755      C2756   1.398       .  A
C2755      F2762   1.358       .  S
C2756      C2757   1.405   1_556  A
C2756      H2761   1.083       .  S
C2757      C2758   1.408       .  A
C2758      F2759   1.357       .  S
C2763      C2764   1.405   1_556  A
C2763      C2768   1.398       .  A
C2763      H2770   1.083       .  S
C2764      C2765   1.408       .  A
C2765      C2766   1.399       .  A
C2765      F2772   1.357       .  S
C2766      C2767   1.405       .  A
C2766      H2771   1.083       .  S
C2767      C2768   1.408   1_554  A
C2768      F2769   1.358       .  S
