geometry optimzed in LAMMPS
_audit_creation_date              2020-11-30 
_audit_creation_method            'lammps2cif' 
_symmetry_space_group_name_H-M    'P1' 
_symmetry_Int_Tables_number       1 
_symmetry_cell_setting            triclinic 
loop_ 
_symmetry_equiv_pos_as_xyz 
  x,y,z 
_cell_length_a                    104.55722798 
_cell_length_b                    103.29940616205995 
_cell_length_c                    102.42202698838659 
_cell_angle_alpha                 89.62322645196436 
_cell_angle_beta                  89.7027143938404 
_cell_angle_gamma                 89.93492745842033 
loop_ 
_atom_site_label 
_atom_site_type_symbol 
_atom_site_fract_x 
_atom_site_fract_y 
_atom_site_fract_z 
_atom_site_charge 
N1          N  0.17473328  0.48172415  0.08156321    -0.26700
N2          N  0.18693209  0.48293379  0.07832029    -0.34500
C3          C  0.19425988  0.47873135  0.08815547     0.01700
C4          C  0.18644676  0.47457592  0.09817491     0.07700
C5          C  0.17404258  0.47655970  0.09371885    -0.05400
H6          H  0.20461363  0.47911538  0.08817564     0.08300
H7          H  0.16525050  0.47499572  0.09911528     0.09500
Cu8        Cu  0.19374838  0.49115525  0.06134839     0.44200
Cu9        Cu  0.16016519  0.48862718  0.06932050     0.42000
Cu10       Cu  0.17248479  0.50354504  0.03824995     0.43900
N11         N  0.20002700  0.49944846  0.04420201    -0.34100
N12         N  0.19216641  0.50394957  0.03522697    -0.28300
C13         C  0.19911645  0.50816108  0.02492154    -0.04400
C14         C  0.21196882  0.50625626  0.02767315     0.07800
C15         C  0.21213809  0.50069015  0.04000777     0.01600
H16         H  0.19512777  0.51212196  0.01602800     0.09200
H17         H  0.22036581  0.49736479  0.04543908     0.08300
N18         N  0.15339836  0.50290442  0.04410917    -0.35500
N19         N  0.14885005  0.49772590  0.05505735    -0.27700
C20         C  0.13607710  0.49965265  0.05545023    -0.02900
C21         C  0.13243455  0.50629220  0.04425117     0.05700
C22         C  0.14371273  0.50817759  0.03734078     0.03800
H23         H  0.12988903  0.49652610  0.06336092     0.08900
H24         H  0.14495069  0.51320311  0.02813312     0.07700
N25         N  0.34553567  0.47863693  0.93716347    -0.26700
N26         N  0.33323362  0.47787466  0.94010213    -0.34500
C27         C  0.32704635  0.47178341  0.93049296     0.01700
C28         C  0.33581587  0.46849355  0.92088767     0.07700
C29         C  0.34746418  0.47299757  0.92545941    -0.05400
H30         H  0.31681311  0.47034384  0.93041541     0.08300
H31         H  0.35660264  0.47249822  0.92048248     0.09500
Cu32       Cu  0.32471030  0.48611228  0.95626331     0.44200
Cu33       Cu  0.35866410  0.48810362  0.94916697     0.42000
Cu34       Cu  0.34385759  0.50552261  0.97679014     0.43900
N35         N  0.31719724  0.49639687  0.97171971    -0.34100
N36         N  0.32422333  0.50375985  0.97933917    -0.28300
C37         C  0.31662111  0.50910669  0.98848811    -0.04400
C38         C  0.30420802  0.50494502  0.98645059     0.07800
C39         C  0.30495308  0.49685883  0.97573062     0.01600
H40         H  0.31990050  0.51545736  0.99613470     0.09200
H41         H  0.29726864  0.49150585  0.97126105     0.08300
N42         N  0.36338285  0.50479333  0.97300640    -0.35500
N43         N  0.36882051  0.49861974  0.96313363    -0.27700
C44         C  0.38159080  0.50030394  0.96380340    -0.02900
C45         C  0.38430085  0.50776086  0.97464110     0.05700
C46         C  0.37250452  0.51044706  0.98019842     0.03800
H47         H  0.38842103  0.49636246  0.95691523     0.08900
H48         H  0.37060416  0.51625292  0.98874428     0.07700
N49         N  0.21335217  0.62333729  0.32123291    -0.26700
N50         N  0.21197787  0.61082382  0.31908822    -0.34500
C51         C  0.20607367  0.60527375  0.32934950     0.01700
C52         C  0.20360052  0.61472942  0.33852109     0.07700
C53         C  0.20841201  0.62607019  0.33309125    -0.05400
H54         H  0.20426048  0.59499898  0.33025607     0.08300
H55         H  0.20848202  0.63555768  0.33751907     0.09500
Cu56       Cu  0.21938213  0.60148194  0.30304418     0.44200
Cu57       Cu  0.22222812  0.63554878  0.30763096     0.42000
Cu58       Cu  0.23758072  0.61937011  0.27929225     0.43900
N59         N  0.22922937  0.59278122  0.28801056    -0.34100
N60         N  0.23606781  0.59912295  0.27917700    -0.28300
C61         C  0.24146752  0.59042081  0.27105213    -0.04400
C62         C  0.23793490  0.57806764  0.27511709     0.07800
C63         C  0.23011990  0.58000603  0.28587139     0.01600
H64         H  0.24761935  0.59287500  0.26287879     0.09200
H65         H  0.22536677  0.57272888  0.29176876     0.08300
N66         N  0.23654444  0.63948389  0.28188843    -0.35500
N67         N  0.23086845  0.64520118  0.29191753    -0.27700
C68         C  0.23130992  0.65811850  0.29011509    -0.02900
C69         C  0.23762141  0.66075183  0.27850518     0.05700
C70         C  0.24083234  0.64868697  0.27355127     0.03800
H71         H  0.22722012  0.66512868  0.29676883     0.08900
H72         H  0.24561456  0.64669558  0.26439813     0.07700
N73         N  0.22155635  0.43109159  0.20799415    -0.26700
N74         N  0.22156312  0.44383587  0.20894477    -0.34500
C75         C  0.21637036  0.44906829  0.19820672     0.01700
C76         C  0.21290356  0.43918722  0.18988187     0.07700
C77         C  0.21627548  0.42787542  0.19644594    -0.05400
H78         H  0.21528580  0.45936970  0.19668832     0.08300
H79         H  0.21511658  0.41806973  0.19300698     0.09500
Cu80       Cu  0.22895833  0.45404120  0.22435154     0.44200
Cu81       Cu  0.22908355  0.41932805  0.22280804     0.42000
Cu82       Cu  0.24233670  0.43740402  0.25124600     0.43900
N83         N  0.23715068  0.46359268  0.23976729    -0.34100
N84         N  0.24211301  0.45759355  0.24996860    -0.28300
C85         C  0.24628966  0.46657032  0.25845342    -0.04400
C86         C  0.24387471  0.47877069  0.25323281     0.07800
C87         C  0.23804452  0.47644421  0.24136841     0.01600
H88         H  0.25057690  0.46440130  0.26780165     0.09200
H89         H  0.23434638  0.48349753  0.23451447     0.08300
N90         N  0.24154878  0.41725444  0.24964452    -0.35500
N91         N  0.23702189  0.41079470  0.23952674    -0.27700
C92         C  0.23825480  0.39800004  0.24190903    -0.02900
C93         C  0.24378072  0.39631857  0.25409364     0.05700
C94         C  0.24568296  0.40872284  0.25867798     0.03800
H95         H  0.23524033  0.39051526  0.23526370     0.08900
H96         H  0.24984580  0.41137119  0.26793052     0.07700
N97         N  0.34424263  0.55937689  0.56695284    -0.26700
N98         N  0.33173562  0.56066689  0.56550613    -0.34500
C99         C  0.32687429  0.56700586  0.57581498     0.01700
C100        C  0.33674020  0.56985387  0.58427344     0.07700
C101        C  0.34761242  0.56479709  0.57838553    -0.05400
H102        H  0.31680395  0.56902014  0.57719356     0.08300
H103        H  0.35725303  0.56499641  0.58216818     0.09500
Cu104      Cu  0.32132155  0.55334953  0.55007487     0.44200
Cu105      Cu  0.35599720  0.55018191  0.55319323     0.42000
Cu106      Cu  0.33863552  0.53730807  0.52498951     0.43900
N107        N  0.31244957  0.54536123  0.53399915    -0.34100
N108        N  0.31881149  0.53953220  0.52453848    -0.28300
C109        C  0.31046206  0.53583899  0.51529508    -0.04400
C110        C  0.29825340  0.53943121  0.51920267     0.07800
C111        C  0.29991500  0.54547287  0.53112298     0.01600
H112        H  0.31308577  0.53099555  0.50634128     0.09200
H113        H  0.29264272  0.54994474  0.53714033     0.08300
N114        N  0.35841302  0.53614546  0.52739484    -0.35500
N115        N  0.36481266  0.54068662  0.53750426    -0.27700
C116        C  0.37740369  0.53828981  0.53566770    -0.02900
C117        C  0.37895253  0.53194770  0.52383718     0.05700
C118        C  0.36671992  0.53080955  0.51892946     0.03800
H119        H  0.38484526  0.54111115  0.54236626     0.08900
H120        H  0.36404016  0.52645678  0.50975466     0.07700
N121        N  0.15640179  0.56539912  0.44225585    -0.26700
N122        N  0.16892442  0.56611033  0.44376242    -0.34500
C123        C  0.17420496  0.57168995  0.43318062     0.01700
C124        C  0.16457723  0.57470226  0.42445420     0.07700
C125        C  0.15339697  0.57051592  0.43050293    -0.05400
H126        H  0.18438253  0.57306245  0.43186767     0.08300
H127        H  0.14381020  0.57104066  0.42658736     0.09500
Cu128      Cu  0.17872308  0.55886793  0.45961362     0.44200
Cu129      Cu  0.14448712  0.55706613  0.45646209     0.42000
Cu130      Cu  0.16118280  0.54401078  0.48556467     0.43900
N131        N  0.18750288  0.55036645  0.47546872    -0.34100
N132        N  0.18115027  0.54485036  0.48518918    -0.28300
C133        C  0.18964192  0.54018208  0.49389490    -0.04400
C134        C  0.20189651  0.54288852  0.48938201     0.07800
C135        C  0.20012858  0.54937956  0.47765350     0.01600
H136        H  0.18710108  0.53521329  0.50286382     0.09200
H137        H  0.20740195  0.55321085  0.47116313     0.08300
N138        N  0.14140361  0.54337311  0.48275154    -0.35500
N139        N  0.13544750  0.54785519  0.47226307    -0.27700
C140        C  0.12291054  0.54500484  0.47330473    -0.02900
C141        C  0.12081520  0.53847917  0.48496956     0.05700
C142        C  0.13277413  0.53764929  0.49071703     0.03800
H143        H  0.11584510  0.54726574  0.46593832     0.08900
H144        H  0.13516351  0.53281609  0.49978347     0.07700
N145        N  0.28825479  0.62276060  0.68506076    -0.26700
N146        N  0.28955085  0.61024559  0.68752621    -0.34500
C147        C  0.29567067  0.60456185  0.67752311     0.01700
C148        C  0.29840943  0.61389454  0.66816894     0.07700
C149        C  0.29350012  0.62531520  0.67324797    -0.05400
H150        H  0.29762685  0.59429661  0.67701419     0.08300
H151        H  0.29365848  0.63477674  0.66863366     0.09500
Cu152      Cu  0.28256456  0.60098561  0.70399633     0.44200
Cu153      Cu  0.27927259  0.63549793  0.69817566     0.42000
Cu154      Cu  0.26772765  0.62025551  0.72858979     0.43900
N155        N  0.27491453  0.59322468  0.72093267    -0.34100
N156        N  0.26961418  0.60029656  0.73019726    -0.28300
C157        C  0.26572097  0.59242571  0.73996358    -0.04400
C158        C  0.26858840  0.57980044  0.73657234     0.07800
C159        C  0.27445963  0.58068370  0.72444893     0.01600
H160        H  0.26101009  0.59563525  0.74879533     0.09200
H161        H  0.27825163  0.57285724  0.71862767     0.08300
N162        N  0.26640285  0.63994003  0.72450295    -0.35500
N163        N  0.27036276  0.64554878  0.71354739    -0.27700
C164        C  0.26778558  0.65833867  0.71424196    -0.02900
C165        C  0.26203402  0.66089479  0.72620149     0.05700
C166        C  0.26130186  0.64895394  0.73239957     0.03800
H167        H  0.26997967  0.66529427  0.70662346     0.08900
H168        H  0.25721975  0.64685660  0.74190753     0.07700
N169        N  0.28436850  0.43742487  0.81588640    -0.26700
N170        N  0.28205270  0.45001352  0.81550012    -0.34500
C171        C  0.28561902  0.45537984  0.82677788     0.01700
C172        C  0.29062502  0.44585626  0.83468571     0.07700
C173        C  0.28972902  0.43451343  0.82752825    -0.05400
H174        H  0.28456102  0.46554553  0.82908379     0.08300
H175        H  0.29226682  0.42485263  0.83073393     0.09500
Cu176      Cu  0.27418676  0.45991919  0.80000932     0.44200
Cu177      Cu  0.27880496  0.42509831  0.80075201     0.42000
Cu178      Cu  0.26464338  0.44239436  0.77243621     0.43900
N179        N  0.26751427  0.46892046  0.78341955    -0.34100
N180        N  0.26417688  0.46248027  0.77289703    -0.28300
C181        C  0.26095831  0.47101212  0.76347569    -0.04400
C182        C  0.26230360  0.48340252  0.76838529     0.07800
C183        C  0.26649787  0.48168184  0.78108365     0.01600
H184        H  0.25808589  0.46840812  0.75370806     0.09200
H185        H  0.26907135  0.48907152  0.78801602     0.08300
N186        N  0.26484277  0.42241466  0.77492680    -0.35500
N187        N  0.27008792  0.41605011  0.78482213    -0.27700
C188        C  0.26772390  0.40329149  0.78337458    -0.02900
C189        C  0.26056886  0.40164462  0.77213095     0.05700
C190        C  0.25892806  0.41394799  0.76710555     0.03800
H191        H  0.27040934  0.39587615  0.79034881     0.08900
H192        H  0.25348215  0.41661892  0.75853334     0.07700
N193        N  0.55052839  0.58401092  0.34899618    -0.26700
N194        N  0.55038599  0.58178145  0.33630538    -0.34500
C195        C  0.55653164  0.59134752  0.32998374     0.01700
C196        C  0.56069997  0.60020466  0.33901096     0.07700
C197        C  0.55675130  0.59527960  0.35105006    -0.05400
H198        H  0.55762558  0.59196011  0.31948500     0.08300
H199        H  0.55823699  0.59954567  0.36053624     0.09500
Cu200      Cu  0.54112510  0.56649139  0.32767344     0.44200
Cu201      Cu  0.54179194  0.57127232  0.36233613     0.42000
Cu202      Cu  0.52305883  0.54459784  0.34722052     0.43900
N203        N  0.53048591  0.55172240  0.31980019    -0.34100
N204        N  0.52376854  0.54342201  0.32688504    -0.28300
C205        C  0.51821032  0.53486285  0.31880544    -0.04400
C206        C  0.52152521  0.53807110  0.30604733     0.07800
C207        C  0.52935018  0.54880992  0.30710565     0.01600
H208        H  0.51228026  0.52684680  0.32197020     0.09200
H209        H  0.53415182  0.55400086  0.29930007     0.08300
N210        N  0.52460238  0.54782064  0.36726781    -0.35500
N211        N  0.53153554  0.55705334  0.37270289    -0.27700
C212        C  0.53065269  0.55583287  0.38579062    -0.02900
C213        C  0.52269126  0.54550876  0.38876079     0.05700
C214        C  0.51905420  0.54065352  0.37675674     0.03800
H215        H  0.53543520  0.56206980  0.39268323     0.08900
H216        H  0.51303136  0.53235717  0.37499341     0.07700
N217        N  0.53593970  0.45707859  0.16376084    -0.26700
N218        N  0.53808563  0.45949227  0.17621546    -0.34500
C219        C  0.54475769  0.44965948  0.18149195     0.01700
C220        C  0.54690802  0.44049495  0.17193032     0.07700
C221        C  0.54111730  0.44548420  0.16082587    -0.05400
H222        H  0.54741487  0.44906455  0.19166958     0.08300
H223        H  0.54061481  0.44095786  0.15134252     0.09500
Cu224      Cu  0.53109687  0.47552874  0.18587042     0.44200
Cu225      Cu  0.52601623  0.46998541  0.15165777     0.42000
Cu226      Cu  0.51424399  0.49975189  0.16757497     0.43900
N227        N  0.52279529  0.49157785  0.19437078    -0.34100
N228        N  0.51663703  0.50065864  0.18777867    -0.28300
C229        C  0.51271323  0.50984144  0.19620654    -0.04400
C230        C  0.51653911  0.50629340  0.20868006     0.07800
C231        C  0.52292028  0.49464435  0.20709072     0.01600
H232        H  0.50755102  0.51852189  0.19345415     0.09200
H233        H  0.52758982  0.48889037  0.21452588     0.08300
N234        N  0.51294571  0.49605811  0.14759767    -0.35500
N235        N  0.51689544  0.48527284  0.14191730    -0.27700
C236        C  0.51426906  0.48602053  0.12906651    -0.02900
C237        C  0.50851936  0.49783834  0.12647995     0.05700
C238        C  0.50782368  0.50393827  0.13847958     0.03800
H239        H  0.51643064  0.47850331  0.12207709     0.08900
H240        H  0.50370154  0.51332219  0.14052638     0.07700
N241        N  0.59450373  0.70821442  0.30327369    -0.26700
N242        N  0.58231738  0.71130224  0.30469093    -0.34500
C243        C  0.57642668  0.70237603  0.31212486     0.01700
C244        C  0.58520759  0.69301696  0.31553564     0.07700
C245        C  0.59665174  0.69697658  0.30975210    -0.05400
H246        H  0.56636682  0.70255748  0.31464310     0.08300
H247        H  0.60580541  0.69211602  0.31023351     0.09500
Cu248      Cu  0.57389235  0.72714448  0.29612452     0.44200
Cu249      Cu  0.60702378  0.72028938  0.29270559     0.42000
Cu250      Cu  0.59265694  0.75072144  0.27918668     0.43900
N251        N  0.56610354  0.74312657  0.28720199    -0.34100
N252        N  0.57282435  0.75215936  0.28111139    -0.28300
C253        C  0.56474288  0.76147925  0.27692318    -0.04400
C254        C  0.55239053  0.75796382  0.28046868     0.07800
C255        C  0.55367851  0.74628797  0.28700018     0.01600
H256        H  0.56762767  0.77016403  0.27175194     0.09200
H257        H  0.54622582  0.74061198  0.29164047     0.08300
N258        N  0.61209179  0.74601327  0.27850142    -0.35500
N259        N  0.61715980  0.73511436  0.28303654    -0.27700
C260        C  0.62986988  0.73535292  0.28076428    -0.02900
C261        C  0.63300857  0.74692422  0.27463201     0.05700
C262        C  0.62146791  0.75342424  0.27333811     0.03800
H263        H  0.63639704  0.72768943  0.28348685     0.08900
H264        H  0.61991864  0.76281610  0.26887989     0.07700
N265        N  0.41030672  0.83506705  0.30161614    -0.26700
N266        N  0.42254175  0.83311902  0.30421911    -0.34500
C267        C  0.42742088  0.84369791  0.30987675     0.01700
C268        C  0.41786273  0.85289584  0.31090107     0.07700
C269        C  0.40714809  0.84713160  0.30548891    -0.05400
H270        H  0.43736136  0.84474535  0.31256303     0.08300
H271        H  0.39778305  0.85144788  0.30434332     0.09500
Cu272      Cu  0.43272973  0.81679721  0.29911939     0.44200
Cu273      Cu  0.39873384  0.82100905  0.29275499     0.42000
Cu274      Cu  0.41562462  0.79079401  0.28497662     0.43900
N275        N  0.44166110  0.80051866  0.29192302    -0.34100
N276        N  0.43536918  0.79074812  0.28677175    -0.28300
C277        C  0.44383870  0.78185679  0.28258584    -0.04400
C278        C  0.45603973  0.78633232  0.28514953     0.07800
C279        C  0.45428141  0.79819616  0.29112804     0.01600
H280        H  0.44131756  0.77291586  0.27781471     0.09200
H281        H  0.46155079  0.80475035  0.29458914     0.08300
N282        N  0.39620265  0.79375073  0.28213121    -0.35500
N283        N  0.38998361  0.80466596  0.28450997    -0.27700
C284        C  0.37766154  0.80316441  0.28088408    -0.02900
C285        C  0.37613635  0.79071010  0.27605557     0.05700
C286        C  0.38807018  0.78508597  0.27707662     0.03800
H287        H  0.37037638  0.81055198  0.28178533     0.08900
H288        H  0.39071350  0.77538086  0.27418347     0.07700
N289        N  0.41272702  0.21059314  0.22929901    -0.26700
N290        N  0.42514920  0.21236620  0.22761463    -0.34500
C291        C  0.43025392  0.20196948  0.22179269     0.01700
C292        C  0.42063656  0.19308084  0.21964339     0.07700
C293        C  0.40964116  0.19880737  0.22463382    -0.05400
H294        H  0.44031136  0.20095145  0.21949962     0.08300
H295        H  0.40010264  0.19476512  0.22472548     0.09500
Cu296      Cu  0.43511752  0.22858405  0.23317728     0.44200
Cu297      Cu  0.40085965  0.22484795  0.23741610     0.42000
Cu298      Cu  0.41799228  0.25484530  0.24651325     0.43900
N299        N  0.44398927  0.24535786  0.23898239    -0.34100
N300        N  0.43770719  0.25524403  0.24400036    -0.28300
C301        C  0.44609064  0.26474602  0.24666007    -0.04400
C302        C  0.45822166  0.26058736  0.24311644     0.07800
C303        C  0.45649630  0.24822025  0.23827930     0.01600
H304        H  0.44354795  0.27401086  0.25078497     0.09200
H305        H  0.46369882  0.24173357  0.23445299     0.08300
N306        N  0.39830654  0.25231271  0.24767783    -0.35500
N307        N  0.39203273  0.24163452  0.24459147    -0.27700
C308        C  0.37941064  0.24369379  0.24651435    -0.02900
C309        C  0.37772495  0.25625664  0.25098314     0.05700
C310        C  0.38989535  0.26136412  0.25156263     0.03800
H311        H  0.37204719  0.23660676  0.24464934     0.08900
H312        H  0.39247385  0.27103184  0.25458208     0.07700
N313        N  0.59904461  0.33990440  0.22075202    -0.26700
N314        N  0.58649859  0.33841133  0.22063302    -0.34500
C315        C  0.58104260  0.34870924  0.21489157     0.01700
C316        C  0.59056416  0.35725985  0.21114030     0.07700
C317        C  0.60188819  0.35140749  0.21509808    -0.05400
H318        H  0.57082729  0.34992905  0.21383741     0.08300
H319        H  0.61146133  0.35523928  0.21395900     0.09500
Cu320      Cu  0.57693613  0.32274503  0.22842665     0.44200
Cu321      Cu  0.61113881  0.32577027  0.22875943     0.42000
Cu322      Cu  0.59450458  0.29702989  0.24293236     0.43900
N323        N  0.56827105  0.30649221  0.23608625    -0.34100
N324        N  0.57464410  0.29675686  0.24136129    -0.28300
C325        C  0.56624713  0.28747706  0.24492739    -0.04400
C326        C  0.55402982  0.29167859  0.24180092     0.07800
C327        C  0.55572032  0.30378325  0.23618131     0.01600
H328        H  0.56883857  0.27830736  0.24933765     0.09200
H329        H  0.54846842  0.31008416  0.23213322     0.08300
N330        N  0.61425311  0.29984059  0.24291537    -0.35500
N331        N  0.62023886  0.30989720  0.23760542    -0.27700
C332        C  0.63294240  0.30820278  0.23900309    -0.02900
C333        C  0.63506236  0.29668846  0.24564120     0.05700
C334        C  0.62298839  0.29163642  0.24794064     0.03800
H335        H  0.64014036  0.31490881  0.23547602     0.08900
H336        H  0.62069151  0.28253194  0.25265520     0.07700
N337        N  0.47223647  0.09316353  0.16996092    -0.26700
N338        N  0.46961446  0.09042419  0.18232108    -0.34500
C339        C  0.46322399  0.10037758  0.18765361     0.01700
C340        C  0.46171879  0.10992366  0.17823253     0.07700
C341        C  0.46761588  0.10504527  0.16715492    -0.05400
H342        H  0.46022658  0.10070567  0.19777223     0.08300
H343        H  0.46853757  0.10981793  0.15776095     0.09500
Cu344      Cu  0.47528903  0.07370053  0.19193665     0.44200
Cu345      Cu  0.48200056  0.08049335  0.15760184     0.42000
Cu346      Cu  0.49316996  0.05077359  0.17360659     0.43900
N347        N  0.48278067  0.05697485  0.20011775    -0.34100
N348        N  0.48948661  0.04847618  0.19336146    -0.28300
C349        C  0.49315782  0.03879725  0.20136595    -0.04400
C350        C  0.48858518  0.04136766  0.21378304     0.07800
C351        C  0.48200719  0.05298322  0.21261210     0.01600
H352        H  0.49878199  0.03052152  0.19837786     0.09200
H353        H  0.47699628  0.05819740  0.22019772     0.08300
N354        N  0.49523409  0.05471584  0.15386307    -0.35500
N355        N  0.49133740  0.06542281  0.14793428    -0.27700
C356        C  0.49417606  0.06455513  0.13510997    -0.02900
C357        C  0.50001919  0.05271593  0.13289734     0.05700
C358        C  0.50056187  0.04678577  0.14503612     0.03800
H359        H  0.49201801  0.07193255  0.12790085     0.08900
H360        H  0.50459234  0.03741506  0.14739022     0.07700
N361        N  0.46447662  0.95739867  0.35578986    -0.26700
N362        N  0.46512766  0.95806509  0.34290218    -0.34500
C363        C  0.45954307  0.94756705  0.33779214     0.01700
C364        C  0.45512329  0.93979204  0.34790294     0.07700
C365        C  0.45846842  0.94630889  0.35919018    -0.05400
H366        H  0.45910311  0.94562874  0.32743765     0.08300
H367        H  0.45680271  0.94312891  0.36914330     0.09500
Cu368      Cu  0.47391694  0.97278410  0.33241994     0.44200
Cu369      Cu  0.47232393  0.97156027  0.36791961     0.42000
Cu370      Cu  0.48912150  0.99769927  0.35043659     0.43900
N371        N  0.48251008  0.98860674  0.32355883    -0.34100
N372        N  0.48802076  0.99795566  0.33021555    -0.28300
C373        C  0.49194241  0.00724339  0.32184151    -0.04400
C374        C  0.48880417  0.00351865  0.30930654     0.07800
C375        C  0.48282311  0.99162402  0.31077050     0.01600
H376        H  0.49645931  0.01620371  0.32469451     0.09200
H377        H  0.47857084  0.98578838  0.30322181     0.08300
N378        N  0.48833599  0.99589544  0.37062031    -0.35500
N379        N  0.48198979  0.98676175  0.37704957    -0.27700
C380        C  0.48305120  0.98898020  0.38996179    -0.02900
C381        C  0.49052898  0.99989477  0.39171718     0.05700
C382        C  0.49368709  0.00401333  0.37922289     0.03800
H383        H  0.47870022  0.98307272  0.39753618     0.08900
H384        H  0.49917541  0.01248719  0.37651573     0.07700
N385        N  0.69739610  0.31717819  0.60758599    -0.26700
N386        N  0.69849521  0.32075830  0.59522123    -0.34500
C387        C  0.68765396  0.32659428  0.59140815     0.01700
C388        C  0.67921630  0.32665356  0.60184978     0.07700
C389        C  0.68567289  0.32054339  0.61194064    -0.05400
H390        H  0.68581906  0.32984404  0.58153159     0.08300
H391        H  0.68202297  0.31845508  0.62162942     0.09500
Cu392      Cu  0.71361630  0.31567889  0.58330695     0.44200
Cu393      Cu  0.71197217  0.30748212  0.61744245     0.42000
Cu394      Cu  0.73835744  0.29581286  0.59647986     0.43900
N395        N  0.72673972  0.30609516  0.57177834    -0.34100
N396        N  0.73574256  0.29838007  0.57641718    -0.28300
C397        C  0.74198019  0.29290375  0.56628027    -0.04400
C398        C  0.73655520  0.29746418  0.55476512     0.07800
C399        C  0.72696773  0.30578973  0.55868148     0.01600
H400        H  0.74977467  0.28607502  0.56725810     0.09200
H401        H  0.72044824  0.31107372  0.55245298     0.08300
N402        N  0.73826731  0.29500946  0.61688417    -0.35500
N403        N  0.72869718  0.29892552  0.62441220    -0.27700
C404        C  0.73174865  0.29671735  0.63700194    -0.02900
C405        C  0.74382756  0.29117698  0.63743406     0.05700
C406        C  0.74766133  0.29032294  0.62451874     0.03800
H407        H  0.72562940  0.29907972  0.64520060     0.08900
H408        H  0.75659919  0.28642709  0.62091575     0.07700
N409        N  0.81955748  0.30823815  0.41178594    -0.26700
N410        N  0.81968370  0.30889976  0.42466536    -0.34500
C411        C  0.83006800  0.31538547  0.42853385     0.01700
C412        C  0.83701613  0.31905722  0.41761701     0.07700
C413        C  0.83012891  0.31426585  0.40711600    -0.05400
H414        H  0.83253517  0.31691812  0.43864372     0.08300
H415        H  0.83263790  0.31507827  0.39688187     0.09500
Cu416      Cu  0.80635667  0.30062597  0.43697419     0.44200
Cu417      Cu  0.80459731  0.29899721  0.40190215     0.42000
Cu418      Cu  0.77888831  0.28612609  0.42411553     0.43900
N419        N  0.79252027  0.29248101  0.44877413    -0.34100
N420        N  0.78195325  0.28728756  0.44417181    -0.28300
C421        C  0.77459813  0.28337721  0.45431756    -0.04400
C422        C  0.78099004  0.28625409  0.46580949     0.07800
C423        C  0.79231110  0.29195468  0.46186910     0.01600
H424        H  0.76532467  0.27885444  0.45337335     0.09200
H425        H  0.79973444  0.29573875  0.46807999     0.08300
N426        N  0.77879834  0.28518955  0.40376700    -0.35500
N427        N  0.78790758  0.28949824  0.39580022    -0.27700
C428        C  0.78454224  0.28682415  0.38339586    -0.02900
C429        C  0.77278576  0.28057486  0.38359469     0.05700
C430        C  0.76947744  0.27977850  0.39664377     0.03800
H431        H  0.79020763  0.28935096  0.37489306     0.08900
H432        H  0.76088837  0.27547103  0.40071024     0.07700
N433        N  0.06427230  0.18442501  0.47263144    -0.26700
N434        N  0.06388624  0.19721086  0.47298179    -0.34500
C435        C  0.07361245  0.20208665  0.46593723     0.01700
C436        C  0.08062794  0.19198845  0.46086369     0.07700
C437        C  0.07445927  0.18084029  0.46529259    -0.05400
H438        H  0.07551962  0.21232156  0.46470474     0.08300
H439        H  0.07715078  0.17092076  0.46336375     0.09500
Cu440      Cu  0.05040699  0.20790554  0.48294925     0.44200
Cu441      Cu  0.05049905  0.17307454  0.48239863     0.42000
Cu442      Cu  0.02473619  0.19231261  0.49893088     0.43900
N443        N  0.03611531  0.21802049  0.49233531    -0.34100
N444        N  0.02625827  0.21243812  0.49816900    -0.28300
C445        C  0.01841673  0.22175015  0.50282458    -0.04400
C446        C  0.02374757  0.23371806  0.49973209     0.07800
C447        C  0.03493805  0.23091887  0.49313752     0.01600
H448        H  0.00953524  0.21992880  0.50798438     0.09200
H449        H  0.04164835  0.23778411  0.48899345     0.08300
N450        N  0.02584386  0.17213209  0.49853634    -0.35500
N451        N  0.03498128  0.16517330  0.49291199    -0.27700
C452        C  0.03235435  0.15249357  0.49483299    -0.02900
C453        C  0.02103407  0.15146853  0.50192602     0.05700
C454        C  0.01722523  0.16409061  0.50402473     0.03800
H455        H  0.03812101  0.14462919  0.49109392     0.08900
H456        H  0.00871603  0.16723140  0.50917028     0.07700
N457        N  0.93752878  0.36847799  0.46539377    -0.26700
N458        N  0.93975487  0.35616669  0.46281868    -0.34500
C459        C  0.92989477  0.35124181  0.45614163     0.01700
C460        C  0.92085998  0.36088405  0.45438930     0.07700
C461        C  0.92600444  0.37169614  0.46042788    -0.05400
H462        H  0.92906701  0.34115277  0.45351970     0.08300
H463        H  0.92150248  0.38106481  0.46150407     0.09500
Cu464      Cu  0.95482940  0.34589272  0.47052689     0.44200
Cu465      Cu  0.95033235  0.37947254  0.47649566     0.42000
Cu466      Cu  0.97544136  0.36083666  0.49397347     0.43900
N467        N  0.96716682  0.33560157  0.48226204    -0.34100
N468        N  0.97464828  0.34078809  0.49117255    -0.28300
C469        C  0.98073728  0.33114290  0.49759993    -0.04400
C470        C  0.97676138  0.31940711  0.49242565     0.07800
C471        C  0.96819867  0.32266993  0.48276702     0.01600
H472        H  0.98738105  0.33258015  0.50551991     0.09200
H473        H  0.96291422  0.31608850  0.47664826     0.08300
N474        N  0.97386059  0.38106445  0.49407554    -0.35500
N475        N  0.96487581  0.38769355  0.48784633    -0.27700
C476        C  0.96666288  0.40041226  0.49004911    -0.02900
C477        C  0.97724223  0.40194516  0.49798379     0.05700
C478        C  0.98155679  0.38943891  0.50034540     0.03800
H479        H  0.96064737  0.40803555  0.48617996     0.08900
H480        H  0.98961389  0.38657439  0.50629200     0.07700
N481        N  0.44193487  0.18635824  0.54273093    -0.26700
N482        N  0.44348677  0.19834377  0.54685285    -0.34500
C483        C  0.43300582  0.20217823  0.55333079     0.01700
C484        C  0.42427344  0.19216009  0.55333403     0.07700
C485        C  0.43021196  0.18226472  0.54647229    -0.05400
H486        H  0.43165194  0.21184334  0.55709094     0.08300
H487        H  0.42618998  0.17293433  0.54410700     0.09500
Cu488      Cu  0.45865166  0.21004220  0.54207858     0.44200
Cu489      Cu  0.45599216  0.17684816  0.53178391     0.42000
Cu490      Cu  0.48235303  0.19831958  0.52060848     0.43900
N491        N  0.47220426  0.22191488  0.53382929    -0.34100
N492        N  0.48103787  0.21775036  0.52562098    -0.28300
C493        C  0.48813156  0.22791211  0.52159835    -0.04400
C494        C  0.48340155  0.23895834  0.52760418     0.07800
C495        C  0.47331482  0.23476451  0.53524727     0.01600
H496        H  0.49603772  0.22726881  0.51477613     0.09200
H497        H  0.46718006  0.24062337  0.54134751     0.08300
N498        N  0.48179975  0.17836132  0.51800889    -0.35500
N499        N  0.47243525  0.17059490  0.52191028    -0.27700
C500        C  0.47564691  0.15829068  0.51899770    -0.02900
C501        C  0.48759086  0.15834874  0.51300859     0.05700
C502        C  0.49114409  0.17121698  0.51257464     0.03800
H503        H  0.46983043  0.14993925  0.52137059     0.08900
H504        H  0.50003263  0.17510774  0.50878662     0.07700
N505        N  0.57431753  0.37126422  0.55976627    -0.26700
N506        N  0.57330732  0.35853974  0.56027673    -0.34500
C507        C  0.58326039  0.35354784  0.56679997     0.01700
C508        C  0.59107611  0.36362108  0.57061352     0.07700
C509        C  0.58511220  0.37474051  0.56597678    -0.05400
H510        H  0.58496442  0.34327525  0.56795903     0.08300
H511        H  0.58863107  0.38455689  0.56661435     0.09500
Cu512      Cu  0.55952801  0.34835975  0.55057818     0.44200
Cu513      Cu  0.56114128  0.38256443  0.54951168     0.42000
Cu514      Cu  0.53688287  0.36483636  0.53009333     0.43900
N515        N  0.54629614  0.33891344  0.53944059    -0.34100
N516        N  0.53775576  0.34468883  0.53192465    -0.28300
C517        C  0.53037781  0.33551745  0.52643599    -0.04400
C518        C  0.53464541  0.32348812  0.53075075     0.07800
C519        C  0.54474535  0.32605921  0.53888584     0.01600
H520        H  0.52251908  0.33747883  0.51988574     0.09200
H521        H  0.55043146  0.31908850  0.54424854     0.08300
N522        N  0.53826600  0.38500266  0.53122654    -0.35500
N523        N  0.54678600  0.39125387  0.53834723    -0.27700
C524        C  0.54455977  0.40405616  0.53734152    -0.02900
C525        C  0.53424938  0.40604502  0.52917132     0.05700
C526        C  0.53049281  0.39373096  0.52545618     0.03800
H527        H  0.55001115  0.41141890  0.54231676     0.08900
H528        H  0.52250820  0.39123631  0.51929873     0.07700
N529        N  0.31955766  0.23486192  0.59954042    -0.26700
N530        N  0.31671234  0.22975704  0.58813299    -0.34500
C531        C  0.32708649  0.22385787  0.58320042     0.01700
C532        C  0.33704623  0.22530144  0.59192928     0.07700
C533        C  0.33192323  0.23233725  0.60218017    -0.05400
H534        H  0.32730309  0.21911711  0.57382428     0.08300
H535        H  0.33686319  0.23550601  0.61084715     0.09500
Cu536      Cu  0.29909696  0.23147601  0.57938651     0.44200
Cu537      Cu  0.30618228  0.24493327  0.61065232     0.42000
Cu538      Cu  0.27385822  0.24764864  0.59680128     0.43900
N539        N  0.28136184  0.23510665  0.57150154    -0.34100
N540        N  0.27199328  0.24104391  0.57776699    -0.28300
C541        C  0.26195792  0.24228812  0.56966606    -0.04400
C542        C  0.26522888  0.23691749  0.55775232     0.07800
C543        C  0.27761433  0.23243106  0.55930332     0.01600
H544        H  0.25302804  0.24699028  0.57217334     0.09200
H545        H  0.28361226  0.22773920  0.55212370     0.08300
N546        N  0.27888261  0.25392834  0.61534417    -0.35500
N547        N  0.29056772  0.25314981  0.62020408    -0.27700
C548        C  0.29050002  0.25811445  0.63230989    -0.02900
C549        C  0.27822786  0.26217313  0.63527235     0.05700
C550        C  0.27109502  0.25937798  0.62426900     0.03800
H551        H  0.29878971  0.25863078  0.63856833     0.08900
H552        H  0.26100357  0.26113542  0.62278847     0.07700
N553        N  0.18402668  0.22225060  0.41352134    -0.26700
N554        N  0.18599619  0.21851758  0.42572360    -0.34500
C555        C  0.17607858  0.21129674  0.42984762     0.01700
C556        C  0.16730278  0.21045502  0.41982281     0.07700
C557        C  0.17263143  0.21756939  0.40963131    -0.05400
H558        H  0.17503907  0.20759707  0.43969912     0.08300
H559        H  0.16834878  0.21953269  0.40022195     0.09500
Cu560      Cu  0.20114368  0.22451184  0.43708031     0.44200
Cu561      Cu  0.19678461  0.23418359  0.40321652     0.42000
Cu562      Cu  0.22325488  0.24676538  0.42274187     0.43900
N563        N  0.21628612  0.23232699  0.44724558    -0.34100
N564        N  0.22456412  0.24047212  0.44193372    -0.28300
C565        C  0.23338757  0.24359756  0.45088395    -0.04400
C566        C  0.23043952  0.23719843  0.46241100     0.07800
C567        C  0.21952537  0.23011546  0.45974530     0.01600
H568        H  0.24137308  0.25004752  0.44912547     0.09200
H569        H  0.21438975  0.22367530  0.46627740     0.08300
N570        N  0.22042328  0.25119140  0.40320360    -0.35500
N571        N  0.21113965  0.24641471  0.39593964    -0.27700
C572        C  0.21262378  0.25084029  0.38360630    -0.02900
C573        C  0.22328397  0.25883412  0.38317837     0.05700
C574        C  0.22789846  0.25886989  0.39577403     0.03800
H575        H  0.20635492  0.24848163  0.37560265     0.08900
H576        H  0.23627500  0.26391710  0.39925324     0.07700
N577        N  0.70953265  0.92674698  0.68975673    -0.26700
N578        N  0.70305126  0.93726040  0.69295897    -0.34500
C579        C  0.69723580  0.94204847  0.68228870     0.01700
C580        C  0.70020598  0.93420298  0.67176917     0.07700
C581        C  0.70800778  0.92458953  0.67689265    -0.05400
H582        H  0.69198085  0.95106961  0.68210235     0.08300
H583        H  0.71273850  0.91695818  0.67152625     0.09500
Cu584      Cu  0.70445423  0.94620316  0.71092625     0.44200
Cu585      Cu  0.72130886  0.91688361  0.70289265     0.42000
Cu586      Cu  0.72969564  0.93502233  0.73209635     0.43900
N587        N  0.71114361  0.95665421  0.72664925    -0.34100
N588        N  0.72096232  0.95303884  0.73390048    -0.28300
C589        C  0.72403263  0.96280104  0.74196460    -0.04400
C590        C  0.71565412  0.97296649  0.73967990     0.07800
C591        C  0.70756861  0.96867560  0.73002543     0.01600
H592        H  0.73181327  0.96252953  0.74888954     0.09200
H593        H  0.70002677  0.97413771  0.72533819     0.08300
N594        N  0.73571401  0.91615601  0.72851337    -0.35500
N595        N  0.73267292  0.90955832  0.71794356    -0.27700
C596        C  0.73769658  0.89758188  0.71890740    -0.02900
C597        C  0.74413833  0.89653535  0.73064479     0.05700
C598        C  0.74269935  0.90853544  0.73647174     0.03800
H599        H  0.73651358  0.89006959  0.71170362     0.08900
H600        H  0.74626740  0.91151411  0.74587431     0.07700
N601        N  0.71141311  0.11714302  0.81816881    -0.26700
N602        N  0.70810854  0.10492559  0.81647358    -0.34500
C603        C  0.70105521  0.10089552  0.82669306     0.01700
C604        C  0.69981114  0.11104429  0.83535082     0.07700
C605        C  0.70656415  0.12118734  0.82967172    -0.05400
H606        H  0.69758843  0.09110033  0.82791566     0.08300
H607        H  0.70803050  0.13071769  0.83371452     0.09500
Cu608      Cu  0.71418178  0.09360344  0.80113720     0.44200
Cu609      Cu  0.72262190  0.12729457  0.80462994     0.42000
Cu610      Cu  0.73481275  0.10750091  0.77726758     0.43900
N611        N  0.72257428  0.08288747  0.78649200    -0.34100
N612        N  0.73041938  0.08785878  0.77765968    -0.28300
C613        C  0.73453350  0.07829781  0.76977658    -0.04400
C614        C  0.72893302  0.06678952  0.77386554     0.07800
C615        C  0.72143496  0.07010913  0.78452596     0.01600
H616        H  0.74106200  0.07961842  0.76167101     0.09200
H617        H  0.71565843  0.06376348  0.79057073     0.08300
N618        N  0.73739731  0.12739729  0.77901568    -0.35500
N619        N  0.73318881  0.13454761  0.78883318    -0.27700
C620        C  0.73641207  0.14699626  0.78654554    -0.02900
C621        C  0.74291802  0.14768816  0.77471899     0.05700
C622        C  0.74332310  0.13510453  0.77026235     0.03800
H623        H  0.73390973  0.15495104  0.79288848     0.08900
H624        H  0.74749751  0.13179238  0.76118452     0.07700
N625        N  0.66516997  0.98856244  0.56565436    -0.26700
N626        N  0.67777622  0.98801877  0.56475032    -0.34500
C627        C  0.68239645  0.98155954  0.57517996     0.01700
C628        C  0.67218423  0.97786213  0.58306463     0.07700
C629        C  0.66144190  0.98251774  0.57672069    -0.05400
H630        H  0.69245665  0.97994019  0.57696689     0.08300
H631        H  0.65161822  0.98167726  0.57998798     0.09500
Cu632      Cu  0.68804827  0.99648268  0.54949284     0.44200
Cu633      Cu  0.65369728  0.99781511  0.55186843     0.42000
Cu634      Cu  0.66975004  0.01374453  0.52459831     0.43900
N635        N  0.69619125  0.00548488  0.53323911    -0.34100
N636        N  0.68958788  0.01159058  0.52409020    -0.28300
C637        C  0.69774975  0.01594365  0.51483781    -0.04400
C638        C  0.71007288  0.01252055  0.51836461     0.07800
C639        C  0.70869818  0.00587151  0.53009227     0.01600
H640        H  0.69491835  0.02119512  0.50614740     0.09200
H641        H  0.71616197  0.00142086  0.53585149     0.08300
N642        N  0.65000795  0.01430473  0.52758652    -0.35500
N643        N  0.64419716  0.00821784  0.53735116    -0.27700
C644        C  0.63149489  0.01002222  0.53630428    -0.02900
C645        C  0.62915826  0.01773197  0.52548684     0.05700
C646        C  0.64112965  0.02026916  0.52016564     0.03800
H647        H  0.62444597  0.00599134  0.54294775     0.08900
H648        H  0.64323239  0.02575125  0.51138079     0.07700
N649        N  0.84987695  0.99128938  0.43694143    -0.26700
N650        N  0.83726037  0.99131903  0.43783164    -0.34500
C651        C  0.83236430  0.98522732  0.42741628     0.01700
C652        C  0.84239834  0.98119212  0.41953400     0.07700
C653        C  0.85334153  0.98527152  0.42584577    -0.05400
H654        H  0.82223865  0.98412590  0.42560005     0.08300
H655        H  0.86311524  0.98400129  0.42257734     0.09500
Cu656      Cu  0.82733580  0.00000705  0.45301045     0.44200
Cu657      Cu  0.86168202  0.99947823  0.45098655     0.42000
Cu658      Cu  0.84596507  0.01511470  0.47863478     0.43900
N659        N  0.81931902  0.00873210  0.46928959    -0.34100
N660        N  0.82598144  0.01411068  0.47875813    -0.28300
C661        C  0.81780317  0.01815662  0.48810791    -0.04400
C662        C  0.80543068  0.01525268  0.48429622     0.07800
C663        C  0.80680167  0.00927325  0.47230059     0.01600
H664        H  0.82066013  0.02266063  0.49713737     0.09200
H665        H  0.79933497  0.00520337  0.46632495     0.08300
N666        N  0.86581979  0.01394118  0.47628107    -0.35500
N667        N  0.87146744  0.00804649  0.46636500    -0.27700
C668        C  0.88421986  0.00834046  0.46810575    -0.02900
C669        C  0.88679941  0.01479786  0.47958254     0.05700
C670        C  0.87487945  0.01823643  0.48451310     0.03800
H671        H  0.89114234  0.00401906  0.46153539     0.08900
H672        H  0.87288612  0.02312776  0.49359134     0.07700
N673        N  0.80783935  0.12655825  0.18661079    -0.26700
N674        N  0.81158678  0.11450387  0.18859811    -0.34500
C675        C  0.81840695  0.11046304  0.17826829     0.01700
C676        C  0.81897328  0.12044549  0.16920054     0.07700
C677        C  0.81215587  0.13051872  0.17482033    -0.05400
H678        H  0.82175679  0.10062525  0.17706144     0.08300
H679        H  0.80987389  0.13974505  0.17034826     0.09500
Cu680      Cu  0.80500256  0.10321298  0.20383247     0.44200
Cu681      Cu  0.79559505  0.13587963  0.19962175     0.42000
Cu682      Cu  0.77869220  0.11483941  0.22350705     0.43900
N683        N  0.79528474  0.09185329  0.21716413    -0.34100
N684        N  0.78533368  0.09570138  0.22415541    -0.28300
C685        C  0.78141101  0.08571436  0.23175745    -0.04400
C686        C  0.78938123  0.07519962  0.22937569     0.07800
C687        C  0.79800378  0.07949322  0.22010855     0.01600
H688        H  0.77369127  0.08623339  0.23880489     0.09200
H689        H  0.80586575  0.07406247  0.21591979     0.08300
N690        N  0.77638886  0.13496407  0.22212110    -0.35500
N691        N  0.78279754  0.14242585  0.21380061    -0.27700
C692        C  0.78013518  0.15489611  0.21635982    -0.02900
C693        C  0.77159642  0.15541706  0.22668173     0.05700
C694        C  0.76938345  0.14258224  0.23009113     0.03800
H695        H  0.78443380  0.16304881  0.21130760     0.08900
H696        H  0.76367160  0.13905313  0.23818984     0.07700
N697        N  0.80005132  0.93369751  0.31422236    -0.26700
N698        N  0.80327565  0.94591812  0.31222459    -0.34500
C699        C  0.80928473  0.95043466  0.32280638     0.01700
C700        C  0.80988256  0.94061707  0.33204905     0.07700
C701        C  0.80388129  0.93014413  0.32628785    -0.05400
H702        H  0.81232671  0.96037106  0.32389832     0.08300
H703        H  0.80212451  0.92075499  0.33068230     0.09500
Cu704      Cu  0.79786447  0.95664460  0.29610735     0.44200
Cu705      Cu  0.79001869  0.92301213  0.30036102     0.42000
Cu706      Cu  0.77847161  0.94161348  0.27180993     0.43900
N707        N  0.78928529  0.96687444  0.28115519    -0.34100
N708        N  0.78191265  0.96155100  0.27223907    -0.28300
C709        C  0.77729197  0.97100642  0.26442772    -0.04400
C710        C  0.78203951  0.98279233  0.26864568     0.07800
C711        C  0.78959452  0.97975264  0.27930052     0.01600
H712        H  0.77090051  0.96944006  0.25631438     0.09200
H713        H  0.79474101  0.98637547  0.28548884     0.08300
N714        N  0.77650585  0.92156902  0.27418602    -0.35500
N715        N  0.78052978  0.91488856  0.28446160    -0.27700
C716        C  0.77781260  0.90226097  0.28268772    -0.02900
C717        C  0.77181777  0.90090189  0.27071919     0.05700
C718        C  0.77117248  0.91334132  0.26564673     0.03800
H719        H  0.78021970  0.89464468  0.28955497     0.08900
H720        H  0.76719183  0.91619511  0.25634030     0.07700
N721        N  0.65719689  0.06166300  0.94005412    -0.26700
N722        N  0.66912596  0.06547788  0.94168252    -0.34500
C723        C  0.67288437  0.07242093  0.93123891     0.01700
C724        C  0.66283033  0.07304156  0.92250364     0.07700
C725        C  0.65303744  0.06605759  0.92839806    -0.05400
H726        H  0.68244415  0.07622058  0.92993740     0.08300
H727        H  0.64368037  0.06411009  0.92440023     0.09500
Cu728      Cu  0.68026561  0.06000173  0.95734161     0.44200
Cu729      Cu  0.64778879  0.05036390  0.95396757     0.42000
Cu730      Cu  0.66693077  0.03924793  0.98223802     0.43900
N731        N  0.69091250  0.05203238  0.97228055    -0.34100
N732        N  0.68621158  0.04433290  0.98147291    -0.28300
C733        C  0.69584857  0.04045670  0.98928523    -0.04400
C734        C  0.70710603  0.04599479  0.98467410     0.07800
C735        C  0.70358458  0.05321950  0.97390537     0.01600
H736        H  0.69476645  0.03384646  0.99745128     0.09200
H737        H  0.70982640  0.05876125  0.96754238     0.08300
N738        N  0.64730955  0.03630929  0.98020203    -0.35500
N739        N  0.64056960  0.04017293  0.96997511    -0.27700
C740        C  0.62826124  0.03687302  0.97184712    -0.02900
C741        C  0.62711258  0.03074298  0.98381655     0.05700
C742        C  0.63939349  0.03050550  0.98885654     0.03800
H743        H  0.62064422  0.03894580  0.96503512     0.08900
H744        H  0.64240536  0.02642201  0.99809924     0.07700
N745        N  0.84949430  0.06403534  0.06493216    -0.26700
N746        N  0.83709039  0.06641149  0.06517044    -0.34500
C747        C  0.83436099  0.07448219  0.07499595     0.01700
C748        C  0.84561088  0.07736948  0.08139050     0.07700
C749        C  0.85503208  0.07052537  0.07478492    -0.05400
H750        H  0.82477136  0.07747310  0.07760697     0.08300
H751        H  0.86508393  0.07004400  0.07717042     0.09500
Cu752      Cu  0.82417649  0.05768625  0.05304596     0.44200
Cu753      Cu  0.85756914  0.05155259  0.05125854     0.42000
Cu754      Cu  0.83471179  0.03471245  0.02931077     0.43900
N755        N  0.81184104  0.04802111  0.04102165    -0.34100
N756        N  0.81541772  0.03958316  0.03207552    -0.28300
C757        C  0.80487928  0.03542837  0.02578703    -0.04400
C758        C  0.79426920  0.04158602  0.03118412     0.07800
C759        C  0.79909845  0.04942565  0.04079150     0.01600
H760        H  0.80497118  0.02853430  0.01788262     0.09200
H761        H  0.79374643  0.05586675  0.04706774     0.08300
N762        N  0.85467209  0.03257684  0.02878287    -0.35500
N763        N  0.86276712  0.03882357  0.03640869    -0.27700
C764        C  0.87481700  0.03552333  0.03309574    -0.02900
C765        C  0.87434119  0.02673312  0.02295277     0.05700
C766        C  0.86143133  0.02503456  0.02055918     0.03800
H767        H  0.88327315  0.03913390  0.03788061     0.08900
H768        H  0.85724520  0.01883890  0.01324480     0.07700
C769        C  0.53505306  0.97928823  0.03913719     0.80800
N770        N  0.52899601  0.98422084  0.04981569    -0.77500
C771        C  0.53365423  0.99494513  0.05580344     0.83300
N772        N  0.54448638  0.00063195  0.05112452    -0.77400
C773        C  0.55056808  0.99582691  0.04047419     0.83400
N774        N  0.54582801  0.98512738  0.03454919    -0.79100
C775        C  0.52754100  0.07033031  0.48178333     0.80800
N776        N  0.53894501  0.06822495  0.48784543    -0.77500
C777        C  0.54640153  0.05796749  0.48443506     0.83300
N778        N  0.54253483  0.05003774  0.47468336    -0.77400
C779        C  0.53127083  0.05209817  0.46848700     0.83400
N780        N  0.52373482  0.06219080  0.47216357    -0.79100
N781        N  0.69888814  0.73169552  0.91862657    -0.26700
N782        N  0.69943240  0.72798267  0.93097586    -0.34500
C783        C  0.68868435  0.72162395  0.93419254     0.01700
C784        C  0.68084427  0.72127719  0.92335114     0.07700
C785        C  0.68761016  0.72780728  0.91365138    -0.05400
H786        H  0.68656206  0.71810729  0.94392797     0.08300
H787        H  0.68444060  0.72982625  0.90380198     0.09500
Cu788      Cu  0.71376944  0.73312473  0.94362355     0.44200
Cu789      Cu  0.71364811  0.74227285  0.90981515     0.42000
Cu790      Cu  0.73915817  0.75328908  0.93214917     0.43900
N791        N  0.72660519  0.74183171  0.95595171    -0.34100
N792        N  0.73600754  0.74941549  0.95191408    -0.28300
C793        C  0.74217345  0.75402478  0.96243834    -0.04400
C794        C  0.73623854  0.74909983  0.97357547     0.07800
C795        C  0.72643309  0.74144572  0.96905396     0.01600
H796        H  0.75019923  0.76061704  0.96198346     0.09200
H797        H  0.71958187  0.73606796  0.97486616     0.08300
N798        N  0.73946670  0.75572547  0.91190528    -0.35500
N799        N  0.73028590  0.75194041  0.90392774    -0.27700
C800        C  0.73358376  0.75516433  0.89159638    -0.02900
C801        C  0.74540151  0.76126872  0.89179823     0.05700
C802        C  0.74881527  0.76139722  0.90482490     0.03800
H803        H  0.72778742  0.75311962  0.88314823     0.08900
H804        H  0.75747868  0.76540862  0.90889156     0.07700
N805        N  0.82303402  0.72948649  0.11223692    -0.26700
N806        N  0.82005384  0.72448184  0.10082756    -0.34500
C807        C  0.82996538  0.71753408  0.09629311     0.01700
C808        C  0.83978350  0.71816667  0.10528551     0.07700
C809        C  0.83506113  0.72586762  0.11526719    -0.05400
H810        H  0.83021019  0.71303533  0.08679263     0.08300
H811        H  0.84014533  0.72894472  0.12388300     0.09500
Cu812      Cu  0.80353036  0.72911750  0.09101765     0.44200
Cu813      Cu  0.81034202  0.74152865  0.12226678     0.42000
Cu814      Cu  0.78118652  0.75215553  0.10475505     0.43900
N815        N  0.78922268  0.73790458  0.08044557    -0.34100
N816        N  0.78111166  0.74660019  0.08505739    -0.28300
C817        C  0.77400295  0.75114509  0.07502811    -0.04400
C818        C  0.77796694  0.74496459  0.06367115     0.07800
C819        C  0.78757233  0.73668496  0.06754481     0.01600
H820        H  0.76681783  0.75863394  0.07588779     0.09200
H821        H  0.79330886  0.73051837  0.06133000     0.08300
N822        N  0.78476038  0.75568618  0.12460251    -0.35500
N823        N  0.79538263  0.75210262  0.13064490    -0.27700
C824        C  0.79474953  0.75591179  0.14317409    -0.02900
C825        C  0.78318442  0.76208125  0.14528118     0.05700
C826        C  0.77707799  0.76177721  0.13326166     0.03800
H827        H  0.80213507  0.75414801  0.15032020     0.08900
H828        H  0.76777274  0.76574223  0.13093121     0.07700
N829        N  0.57429043  0.67713113  0.96305732    -0.26700
N830        N  0.57307195  0.68980709  0.96173884    -0.34500
C831        C  0.58357355  0.69463360  0.95588048     0.01700
C832        C  0.59191179  0.68452008  0.95341014     0.07700
C833        C  0.58574824  0.67357116  0.95815829    -0.05400
H834        H  0.58517645  0.70483072  0.95404442     0.08300
H835        H  0.58940817  0.66376762  0.95821378     0.09500
Cu836      Cu  0.55759022  0.70017494  0.96862921     0.44200
Cu837      Cu  0.56011002  0.66557874  0.97160928     0.42000
Cu838      Cu  0.53078739  0.68234641  0.98185290     0.43900
N839        N  0.54128331  0.70893128  0.97581928    -0.34100
N840        N  0.53131335  0.70251519  0.98048724    -0.28300
C841        C  0.52217736  0.71109795  0.98384135    -0.04400
C842        C  0.52665148  0.72346978  0.98118100     0.07800
C843        C  0.53882128  0.72169637  0.97610950     0.01600
H844        H  0.51289432  0.70852507  0.98776811     0.09200
H845        H  0.54535543  0.72905343  0.97258456     0.08300
N846        N  0.53340293  0.66232957  0.98307321    -0.35500
N847        N  0.54409126  0.65633790  0.97963204    -0.27700
C848        C  0.54284273  0.64360983  0.98225077    -0.02900
C849        C  0.53081499  0.64141168  0.98751425     0.05700
C850        C  0.52508184  0.65352808  0.98788742     0.03800
H851        H  0.55024098  0.63645503  0.98057704     0.08900
H852        H  0.51569937  0.65587690  0.99169645     0.07700
N853        N  0.44052118  0.86298627  0.97995147    -0.26700
N854        N  0.44252721  0.85063546  0.97736915    -0.34500
C855        C  0.43223038  0.84575972  0.97134242     0.01700
C856        C  0.42322123  0.85552629  0.97000640     0.07700
C857        C  0.42878840  0.86629343  0.97565455    -0.05400
H858        H  0.43145631  0.83583160  0.96818607     0.08300
H859        H  0.42467228  0.87588293  0.97641001     0.09500
Cu860      Cu  0.45934722  0.84103205  0.98169978     0.44200
Cu861      Cu  0.45439745  0.87456663  0.98863322     0.42000
Cu862      Cu  0.48546351  0.85909497  0.99559477     0.43900
N863        N  0.47703029  0.83303685  0.98574237    -0.34100
N864        N  0.48668952  0.83948313  0.99083395    -0.28300
C865        C  0.49676341  0.83139441  0.99196857    -0.04400
C866        C  0.49325125  0.81932358  0.98734346     0.07800
C867        C  0.48064804  0.82077268  0.98348333     0.01600
H868        H  0.50598862  0.83410269  0.99582281     0.09200
H869        H  0.47447584  0.81353456  0.97928342     0.08300
N870        N  0.48141983  0.87866297  0.99874775    -0.35500
N871        N  0.47021884  0.88414693  0.99631210    -0.27700
C872        C  0.47084146  0.89676757  0.99943739    -0.02900
C873        C  0.48297507  0.89943852  0.00401124     0.05700
C874        C  0.48943292  0.88770498  0.00345210     0.03800
H875        H  0.46299770  0.90353918  0.99845127     0.08900
H876        H  0.49919855  0.88579365  0.00634869     0.07700
N877        N  0.94058102  0.67239257  0.05298706    -0.26700
N878        N  0.94177218  0.68511073  0.05328073    -0.34500
C879        C  0.93173401  0.69024793  0.05962845     0.01700
C880        C  0.92372285  0.68027497  0.06355377     0.07700
C881        C  0.92960974  0.66908296  0.05911914    -0.05400
H882        H  0.93029152  0.70052579  0.06095115     0.08300
H883        H  0.92612292  0.65927018  0.06019732     0.09500
Cu884      Cu  0.95669005  0.69497656  0.04458299     0.44200
Cu885      Cu  0.95422582  0.66062434  0.04402589     0.42000
Cu886      Cu  0.98257137  0.67712334  0.02991335     0.43900
N887        N  0.97214891  0.70363087  0.03556868    -0.34100
N888        N  0.98187445  0.69728708  0.03036231    -0.28300
C889        C  0.99051063  0.70595837  0.02590566    -0.04400
C890        C  0.98589779  0.71829823  0.02837690     0.07800
C891        C  0.97423328  0.71640144  0.03453025     0.01600
H892        H  0.99955322  0.70347560  0.02138658     0.09200
H893        H  0.96784751  0.72368518  0.03840307     0.08300
N894        N  0.97973858  0.65713379  0.02997846    -0.35500
N895        N  0.96948007  0.65127673  0.03482170    -0.27700
C896        C  0.97053390  0.63846357  0.03274991    -0.02900
C897        C  0.98198695  0.63608204  0.02638750     0.05700
C898        C  0.98758039  0.64816175  0.02478122     0.03800
H899        H  0.96342927  0.63138047  0.03562031     0.08900
H900        H  0.99655803  0.65036282  0.01996394     0.07700
N901        N  0.05920403  0.86013037  0.05466635    -0.26700
N902        N  0.05573434  0.84805740  0.05711197    -0.34500
C903        C  0.06461587  0.84221284  0.06447834     0.01700
C904        C  0.07428068  0.85091680  0.06684490     0.07700
C905        C  0.07057641  0.86226274  0.06048739    -0.05400
H906        H  0.06422405  0.83219259  0.06758562     0.08300
H907        H  0.07579596  0.87128536  0.05995125     0.09500
Cu908      Cu  0.03976869  0.83937199  0.04957200     0.44200
Cu909      Cu  0.04788559  0.87245805  0.04313724     0.42000
Cu910      Cu  0.01933649  0.85687026  0.02825891     0.43900
N911        N  0.02497663  0.83080973  0.03976587    -0.34100
N912        N  0.01727894  0.83710075  0.03175668    -0.28300
C913        C  0.00898055  0.82858951  0.02659584    -0.04400
C914        C  0.01176676  0.81637944  0.03152835     0.07800
C915        C  0.02193104  0.81820581  0.03990688     0.01600
H916        H  0.00164413  0.83104845  0.01959598     0.09200
H917        H  0.02685113  0.81097289  0.04567358     0.08300
N918        N  0.02380866  0.87648375  0.02675417    -0.35500
N919        N  0.03399072  0.88207038  0.03191460    -0.27700
C920        C  0.03366205  0.89481493  0.02900606    -0.02900
C921        C  0.02278079  0.89740564  0.02176641     0.05700
C922        C  0.01679091  0.88552132  0.02051460     0.03800
H923        H  0.04079127  0.90173968  0.03203089     0.08900
H924        H  0.00797926  0.88350208  0.01543290     0.07700
N925        N  0.32193663  0.81076849  0.91859489    -0.26700
N926        N  0.31927536  0.81393974  0.93078318    -0.34500
C927        C  0.32927671  0.82018456  0.93596110     0.01700
C928        C  0.33885000  0.82102557  0.92661661     0.07700
C929        C  0.33387838  0.81490344  0.91571951    -0.05400
H930        H  0.32972573  0.82326162  0.94602164     0.08300
H931        H  0.33872183  0.81328329  0.90651174     0.09500
Cu932      Cu  0.30288041  0.80827720  0.94046677     0.44200
Cu933      Cu  0.30891773  0.80036835  0.90718881     0.42000
Cu934      Cu  0.27997683  0.78808324  0.92454345     0.43900
N935        N  0.28755203  0.79993086  0.95000533    -0.34100
N936        N  0.27912794  0.79222424  0.94445225    -0.28300
C937        C  0.27096734  0.78781591  0.95372412    -0.04400
C938        C  0.27455353  0.79306422  0.96561290     0.07800
C939        C  0.28504275  0.80068125  0.96282565     0.01600
H940        H  0.26321367  0.78112953  0.95196178     0.09200
H941        H  0.29069369  0.80610218  0.96969798     0.08300
N942        N  0.28342294  0.78614219  0.90453933    -0.35500
N943        N  0.29376549  0.79042173  0.89834912    -0.27700
C944        C  0.29271900  0.78756886  0.88557375    -0.02900
C945        C  0.28119755  0.78128691  0.88356882     0.05700
C946        C  0.27557403  0.78053745  0.89584232     0.03800
H947        H  0.29979622  0.79000421  0.87822233     0.08900
H948        H  0.26645371  0.77622783  0.89833995     0.07700
N949        N  0.18202048  0.81720236  0.09814599    -0.26700
N950        N  0.18454298  0.81882360  0.08559973    -0.34500
C951        C  0.17539749  0.82608953  0.08009986     0.01700
C952        C  0.16650375  0.82918171  0.08953704     0.07700
C953        C  0.17096007  0.82340253  0.10095794    -0.05400
H954        H  0.17503725  0.82858532  0.06983390     0.08300
H955        H  0.16648657  0.82357898  0.11050281     0.09500
Cu956      Cu  0.19955480  0.81022238  0.07604666     0.44200
Cu957      Cu  0.19432934  0.80632366  0.10997109     0.42000
Cu958      Cu  0.22237559  0.79090582  0.09281897     0.43900
N959        N  0.21354533  0.79998392  0.06653204    -0.34100
N960        N  0.22225627  0.79278388  0.07241402    -0.28300
C961        C  0.22972157  0.78727354  0.06316580    -0.04400
C962        C  0.22528441  0.79122700  0.05097813     0.07800
C963        C  0.21506396  0.79923116  0.05356611     0.01600
H964        H  0.23759348  0.78076421  0.06516007     0.09200
H965        H  0.20908089  0.80414118  0.04650638     0.08300
N966        N  0.21901501  0.79054782  0.11305592    -0.35500
N967        N  0.20898949  0.79577847  0.11902072    -0.27700
C968        C  0.20985987  0.79340110  0.13193459    -0.02900
C969        C  0.22092998  0.78644804  0.13431314     0.05700
C970        C  0.22649541  0.78481135  0.12209997     0.03800
H971        H  0.20293850  0.79657959  0.13911644     0.08900
H972        H  0.23526878  0.77969896  0.11987466     0.07700
C973        C  0.03793945  0.54349057  0.97497877     0.80800
N974        N  0.03159788  0.55280215  0.98177746    -0.77500
C975        C  0.03603960  0.55675288  0.99358943     0.83300
N976        N  0.04667051  0.55108331  0.99870553    -0.77400
C977        C  0.05294205  0.54164227  0.99204157     0.83400
N978        N  0.04868300  0.53812950  0.98008390    -0.79100
C979        C  0.47803439  0.54834629  0.04269635     0.80800
N980        N  0.46787041  0.54183984  0.03775196    -0.77500
C981        C  0.46252068  0.54553404  0.02625892     0.83300
N982        N  0.46736771  0.55593535  0.01968372    -0.77400
C983        C  0.47757581  0.56251268  0.02446867     0.83400
N984        N  0.48286126  0.55867592  0.03600066    -0.79100
N985        N  0.91039680  0.70684945  0.73098308    -0.26700
N986        N  0.92273301  0.70836668  0.73327956    -0.34500
C987        C  0.92907419  0.69764038  0.72977530     0.01700
C988        C  0.92043454  0.68893677  0.72480926     0.07700
C989        C  0.90861460  0.69504419  0.72568230    -0.05400
H990        H  0.93930107  0.69630471  0.73072130     0.08300
H991        H  0.89941608  0.69105943  0.72309613     0.09500
Cu992      Cu  0.93082896  0.72501124  0.74047161     0.44200
Cu993      Cu  0.89697220  0.72092104  0.73637796     0.42000
Cu994      Cu  0.91116626  0.75170095  0.74830551     0.43900
N995        N  0.93812808  0.74294096  0.74493983    -0.34100
N996        N  0.93096161  0.75311978  0.74758508    -0.28300
C997        C  0.93860746  0.76350700  0.74906327    -0.04400
C998        C  0.95118243  0.75958305  0.74729067     0.07800
C999        C  0.95045824  0.74646419  0.74466256     0.01600
H1000       H  0.93526045  0.77321951  0.75103375     0.09200
H1001       H  0.95820319  0.73996824  0.74220931     0.08300
N1002       N  0.89181457  0.74714349  0.74881487    -0.35500
N1003       N  0.88662275  0.73626173  0.74459530    -0.27700
C1004       C  0.87393854  0.73664984  0.74703112    -0.02900
C1005       C  0.87101714  0.74828474  0.75301823     0.05700
C1006       C  0.88262079  0.75466326  0.75398042     0.03800
H1007       H  0.86733118  0.72892512  0.74478574     0.08900
H1008       H  0.88440806  0.76397609  0.75834969     0.07700
N1009       N  0.09569501  0.83089516  0.71368889    -0.26700
N1010       N  0.08304751  0.83087503  0.71384301    -0.34500
C1011       C  0.07869042  0.84127887  0.70733520     0.01700
C1012       C  0.08906230  0.84831351  0.70280737     0.07700
C1013       C  0.09970521  0.84147250  0.70705041    -0.05400
H1014       H  0.06866277  0.84369805  0.70640604     0.08300
H1015       H  0.10962071  0.84412268  0.70562031     0.09500
Cu1016     Cu  0.07185079  0.81727746  0.72322418     0.44200
Cu1017     Cu  0.10668061  0.81655463  0.72289328     0.42000
Cu1018     Cu  0.08779276  0.79076704  0.73842348     0.43900
N1019       N  0.06213810  0.80256388  0.73260137    -0.34100
N1020       N  0.06797733  0.79269224  0.73826282    -0.28300
C1021       C  0.05908666  0.78459238  0.74318689    -0.04400
C1022       C  0.04710355  0.78960708  0.74043300     0.07800
C1023       C  0.04941304  0.80104038  0.73370347     0.01600
H1024       H  0.06117918  0.77558659  0.74819372     0.09200
H1025       H  0.04244350  0.80770552  0.72970839     0.08300
N1026       N  0.10770027  0.79106797  0.73774079    -0.35500
N1027       N  0.11463308  0.80050255  0.73250644    -0.27700
C1028       C  0.12713115  0.79779000  0.73435733    -0.02900
C1029       C  0.12806864  0.78605554  0.74098996     0.05700
C1030       C  0.11557216  0.78208687  0.74286412     0.03800
H1031       H  0.13492762  0.80386565  0.73103291     0.08900
H1032       H  0.11240666  0.77337910  0.74783982     0.07700
N1033       N  0.95875608  0.58805499  0.66994551    -0.26700
N1034       N  0.95658607  0.58466357  0.68220791    -0.34500
C1035       C  0.95000703  0.59402093  0.68827324     0.01700
C1036       C  0.94784984  0.60400381  0.67947212     0.07700
C1037       C  0.95351725  0.59986312  0.66789907    -0.05400
H1038       H  0.94746995  0.59364390  0.69850406     0.08300
H1039       H  0.95407959  0.60520180  0.65879061     0.09500
Cu1040     Cu  0.96414032  0.56851549  0.69105647     0.44200
Cu1041     Cu  0.96943535  0.57609141  0.65742766     0.42000
Cu1042     Cu  0.98548462  0.54803138  0.67380921     0.43900
N1043       N  0.97553503  0.55512722  0.70027724    -0.34100
N1044       N  0.98370004  0.54749614  0.69416500    -0.28300
C1045       C  0.99024011  0.54060977  0.70318844    -0.04400
C1046       C  0.98602596  0.54426732  0.71552083     0.07800
C1047       C  0.97664578  0.55345693  0.71320810     0.01600
H1048       H  0.99766692  0.53365866  0.70097056     0.09200
H1049       H  0.97104065  0.55871940  0.72031998     0.08300
N1050       N  0.98548780  0.55155415  0.65364308    -0.35500
N1051       N  0.97998672  0.56160241  0.64781331    -0.27700
C1052       C  0.98217016  0.56080784  0.63484751    -0.02900
C1053       C  0.98928433  0.54975531  0.63233643     0.05700
C1054       C  0.99120312  0.54415037  0.64451872     0.03800
H1055       H  0.97878866  0.56777102  0.62772647     0.08900
H1056       H  0.99649428  0.53539782  0.64668208     0.07700
N1057       N  0.96680607  0.46554351  0.85766833    -0.26700
N1058       N  0.96218993  0.46933149  0.84629582    -0.34500
C1059       C  0.95544514  0.45965639  0.84102142     0.01700
C1060       C  0.95580947  0.44913890  0.84945713     0.07700
C1061       C  0.96312941  0.45321281  0.85992468    -0.05400
H1062       H  0.95133278  0.46004000  0.83135935     0.08300
H1063       H  0.96596719  0.44748000  0.86829735     0.09500
Cu1064     Cu  0.96720323  0.48651042  0.83732600     0.44200
Cu1065     Cu  0.97851321  0.47762920  0.86861575     0.42000
Cu1066     Cu  0.99244722  0.50571900  0.85073344     0.43900
N1067       N  0.97638534  0.50101936  0.82706458    -0.34100
N1068       N  0.98632155  0.50758531  0.83140690    -0.28300
C1069       C  0.99056175  0.51547909  0.82174500    -0.04400
C1070       C  0.98275558  0.51377171  0.81096198     0.07800
C1071       C  0.97387408  0.50464598  0.81475123     0.01600
H1072       H  0.99840248  0.52223154  0.82264330     0.09200
H1073       H  0.96620098  0.50076970  0.80890342     0.08300
N1074       N  0.99369699  0.50270424  0.87091558    -0.35500
N1075       N  0.98857741  0.49273911  0.87725490    -0.27700
C1076       C  0.99008063  0.49447652  0.89016651    -0.02900
C1077       C  0.99644289  0.50601460  0.89212887     0.05700
C1078       C  0.99862902  0.51096827  0.87969085     0.03800
H1079       H  0.98646756  0.48795385  0.89763916     0.08900
H1080       H  0.00298237  0.52015007  0.87718312     0.07700
N1081       N  0.04768843  0.95613765  0.66070997    -0.26700
N1082       N  0.05328077  0.95816007  0.67205447    -0.34500
C1083       C  0.05949691  0.94739499  0.67579879     0.01700
C1084       C  0.05773398  0.93801357  0.66639136     0.07700
C1085       C  0.05019050  0.94389924  0.65695711    -0.05400
H1086       H  0.06424256  0.94630721  0.68509480     0.08300
H1087       H  0.04638544  0.93944437  0.64827090     0.09500
Cu1088     Cu  0.05060156  0.97451695  0.68319451     0.44200
Cu1089     Cu  0.03618562  0.97009366  0.65171302     0.42000
Cu1090     Cu  0.02776048  0.99789152  0.67266655     0.43900
N1091       N  0.04441179  0.98949428  0.69487373    -0.34100
N1092       N  0.03559811  0.99796603  0.69132333    -0.28300
C1093       C  0.03334115  0.00605561  0.70136290    -0.04400
C1094       C  0.04118759  0.00242924  0.71166016     0.07800
C1095       C  0.04805800  0.99194400  0.70715553     0.01600
H1096       H  0.02664003  0.01404768  0.70109261     0.09200
H1097       H  0.05513249  0.98640295  0.71247052     0.08300
N1098       N  0.02312366  0.99635221  0.65296537    -0.35500
N1099       N  0.02604076  0.98640395  0.64541160    -0.27700
C1100       C  0.02235626  0.98913090  0.63309742    -0.02900
C1101       C  0.01694283  0.00139874  0.63288885     0.05700
C1102       C  0.01760799  0.00563734  0.64563754     0.03800
H1103       H  0.02406786  0.98288436  0.62483310     0.08900
H1104       H  0.01469489  0.01501308  0.64925367     0.07700
N1105       N  0.04445153  0.08971731  0.85118706    -0.26700
N1106       N  0.04974304  0.08679113  0.83984377    -0.34500
C1107       C  0.05552833  0.09733914  0.83483557     0.01700
C1108       C  0.05379553  0.10749743  0.84343419     0.07700
C1109       C  0.04672417  0.10229819  0.85369136    -0.05400
H1110       H  0.06006784  0.09767454  0.82532875     0.08300
H1111       H  0.04315351  0.10740006  0.86215060     0.09500
Cu1112     Cu  0.04710377  0.06922894  0.83073801     0.44200
Cu1113     Cu  0.03376680  0.07633309  0.86203320     0.42000
Cu1114     Cu  0.02469763  0.04649896  0.84524305     0.43900
N1115       N  0.03972165  0.05350686  0.82098816    -0.34100
N1116       N  0.03108320  0.04549175  0.82592210    -0.28300
C1117       C  0.02722762  0.03742627  0.81642533    -0.04400
C1118       C  0.03383072  0.04049828  0.80505055     0.07800
C1119       C  0.04166587  0.05073840  0.80834236     0.01600
H1120       H  0.01996501  0.03007018  0.81762700     0.09200
H1121       H  0.04785792  0.05625607  0.80190615     0.08300
N1122       N  0.02097215  0.05002051  0.86496189    -0.35500
N1123       N  0.02423153  0.06083383  0.87095856    -0.27700
C1124       C  0.02084193  0.05988619  0.88362508    -0.02900
C1125       C  0.01523277  0.04792943  0.88579223     0.05700
C1126       C  0.01544766  0.04192886  0.87370338     0.03800
H1127       H  0.02250483  0.06731937  0.89081118     0.08900
H1128       H  0.01196926  0.03235621  0.87139716     0.07700
N1129       N  0.09386164  0.21469480  0.79629941    -0.26700
N1130       N  0.08184336  0.21699917  0.79959719    -0.34500
C1131       C  0.07701806  0.20653254  0.80575092     0.01700
C1132       C  0.08646897  0.19711721  0.80635732     0.07700
C1133       C  0.09700807  0.20265699  0.80027353    -0.05400
H1134       H  0.06722507  0.20575590  0.80909854     0.08300
H1135       H  0.10619756  0.19813342  0.79856222     0.09500
Cu1136     Cu  0.07223376  0.23381355  0.79446622     0.44200
Cu1137     Cu  0.10503296  0.22794011  0.78591055     0.42000
Cu1138     Cu  0.08987242  0.25827460  0.77606725     0.43900
N1139       N  0.06394584  0.25029408  0.78654947    -0.34100
N1140       N  0.07028118  0.25920865  0.77982732    -0.28300
C1141       C  0.06192930  0.26819339  0.77554741    -0.04400
C1142       C  0.04977829  0.26474711  0.77972533     0.07800
C1143       C  0.05144050  0.25334723  0.78671362     0.01600
H1144       H  0.06448086  0.27651748  0.76962544     0.09200
H1145       H  0.04414233  0.24752295  0.79141374     0.08300
N1146       N  0.10903783  0.25390677  0.77249188    -0.35500
N1147       N  0.11438380  0.24274542  0.77579373    -0.27700
C1148       C  0.12663730  0.24273874  0.77172808    -0.02900
C1149       C  0.12922057  0.25446570  0.76570357     0.05700
C1150       C  0.11782321  0.26132998  0.76634210     0.03800
H1151       H  0.13324014  0.23478111  0.77314600     0.08900
H1152       H  0.11596162  0.27091330  0.76246796     0.07700
N1153       N  0.91179797  0.34963879  0.79227172    -0.26700
N1154       N  0.92420089  0.34755664  0.79355785    -0.34500
C1155       C  0.92951624  0.35756643  0.79983676     0.01700
C1156       C  0.91999897  0.36646982  0.80267926     0.07700
C1157       C  0.90890120  0.36113785  0.79768922    -0.05400
H1158       H  0.93959052  0.35826921  0.80202834     0.08300
H1159       H  0.89940189  0.36530328  0.79802102     0.09500
Cu1160     Cu  0.93348872  0.33128154  0.78671722     0.44200
Cu1161     Cu  0.89962639  0.33640201  0.78332876     0.42000
Cu1162     Cu  0.91484558  0.30621311  0.77203821     0.43900
N1163       N  0.94133309  0.31434042  0.77966828    -0.34100
N1164       N  0.93459748  0.30491434  0.77442207    -0.28300
C1165       C  0.94256503  0.29508581  0.77141749    -0.04400
C1166       C  0.95488634  0.29858642  0.77487064     0.07800
C1167       C  0.95369747  0.31086292  0.78008848     0.01600
H1168       H  0.93960001  0.28601593  0.76717490     0.09200
H1169       H  0.96115709  0.31674367  0.78427550     0.08300
N1170       N  0.89536389  0.31030654  0.77056868    -0.35500
N1171       N  0.88987567  0.32117572  0.77449145    -0.27700
C1172       C  0.87726848  0.32058463  0.77189551    -0.02900
C1173       C  0.87465600  0.30880711  0.76612109     0.05700
C1174       C  0.88638882  0.30254903  0.76543193     0.03800
H1175       H  0.87046343  0.32818637  0.77409317     0.08900
H1176       H  0.88836001  0.29310684  0.76141558     0.07700
C1177       C  0.96866650  0.04699982  0.52839314     0.80800
N1178       N  0.97259620  0.03870628  0.53794990    -0.77500
C1179       C  0.98322606  0.04134801  0.54506808     0.83300
N1180       N  0.99009361  0.05224787  0.54235992    -0.77400
C1181       C  0.98629041  0.06058374  0.53280246     0.83400
N1182       N  0.97548904  0.05795887  0.52596078    -0.79100
C1183       C  0.04248794  0.49897746  0.53635753     0.80800
N1184       N  0.03853045  0.48768788  0.53088284    -0.77500
C1185       C  0.02816529  0.48127317  0.53576824     0.83300
N1186       N  0.02190830  0.48612479  0.54637121    -0.77400
C1187       C  0.02579581  0.49736402  0.55195936     0.83400
N1188       N  0.03608172  0.50373503  0.54688256    -0.79100
C1189       C  0.97810557  0.99436623  0.96555377     0.80800
N1190       N  0.96792628  0.00102591  0.97045350    -0.77500
C1191       C  0.96117136  0.99629607  0.98081496     0.83300
N1192       N  0.96479520  0.98489069  0.98641722    -0.77400
C1193       C  0.97516632  0.97833033  0.98186974     0.83400
N1194       N  0.98170259  0.98304558  0.97133542    -0.79100
C1195       C  0.77657566  0.80285749  0.80351095     0.80800
N1196       N  0.77181105  0.81385983  0.79804944    -0.77500
C1197       C  0.77757915  0.81939517  0.78751458     0.83300
N1198       N  0.78817954  0.81375775  0.78233727    -0.77400
C1199       C  0.79297010  0.80264148  0.78755765     0.83400
N1200       N  0.78718220  0.79721973  0.79822632    -0.79100
C1201       C  0.21344448  0.75523696  0.78427890     0.80800
N1202       N  0.21805979  0.75931050  0.79594341    -0.77500
C1203       C  0.22801487  0.75313993  0.80175236     0.83300
N1204       N  0.23340824  0.74276385  0.79576045    -0.77400
C1205       C  0.22896984  0.73855572  0.78406530     0.83400
N1206       N  0.21892786  0.74480889  0.77833183    -0.79100
C1207       C  0.77767107  0.25178816  0.72523822     0.80800
N1208       N  0.78863317  0.25771523  0.72918847    -0.77500
C1209       C  0.79543608  0.25274588  0.73937007     0.83300
N1210       N  0.79125200  0.24184354  0.74549577    -0.77400
C1211       C  0.78036347  0.23588318  0.74167428     0.83400
N1212       N  0.77357174  0.24092070  0.73155923    -0.79100
C1213       C  0.71599508  0.79679797  0.24374646     0.80800
N1214       N  0.72178614  0.80730498  0.24894291    -0.77500
C1215       C  0.73265800  0.81224705  0.24358008     0.83300
N1216       N  0.73779670  0.80658977  0.23274931    -0.77400
C1217       C  0.73208448  0.79598340  0.22743284     0.83400
N1218       N  0.72120633  0.79115594  0.23299647    -0.79100
C1219       C  0.73000278  0.23231726  0.27782182     0.80800
N1220       N  0.73768340  0.23603337  0.28782156    -0.77500
C1221       C  0.73409743  0.24584663  0.29585402     0.83300
N1222       N  0.72278800  0.25203557  0.29374132    -0.77400
C1223       C  0.71522686  0.24868221  0.28355989     0.83400
N1224       N  0.71884960  0.23875888  0.27568055    -0.79100
C1225       C  0.21319450  0.30020294  0.73356637     0.80800
N1226       N  0.21764089  0.29424754  0.72264467    -0.77500
C1227       C  0.22881603  0.29805349  0.71698465     0.83300
N1228       N  0.23560716  0.30789932  0.72235842    -0.77400
C1229       C  0.23120940  0.31398788  0.73322770     0.83400
N1230       N  0.21999893  0.31007957  0.73877832    -0.79100
C1231       C  0.27372719  0.75904196  0.21691715     0.80800
N1232       N  0.26923854  0.74838800  0.22342003    -0.77500
C1233       C  0.27540294  0.74395393  0.23428848     0.83300
N1234       N  0.28597695  0.75025242  0.23859180    -0.77400
C1235       C  0.29036068  0.76101053  0.23232733     0.83400
N1236       N  0.28423892  0.76527041  0.22146448    -0.79100
C1237       C  0.46917710  0.49987681  0.49136494     0.80800
N1238       N  0.47686308  0.49003972  0.49551900    -0.77500
C1239       C  0.48703687  0.48617322  0.48813854     0.83300
N1240       N  0.48966948  0.49244508  0.47673091    -0.77400
C1241       C  0.48220590  0.50242846  0.47258051     0.83400
N1242       N  0.47185360  0.50594708  0.47982293    -0.79100
C1243       C  0.28783773  0.28638250  0.28468773     0.80800
N1244       N  0.28428182  0.29783117  0.27916605    -0.77500
C1245       C  0.27355539  0.30407093  0.28333002     0.83300
N1246       N  0.26635373  0.29878005  0.29312660    -0.77400
C1247       C  0.26976102  0.28721735  0.29855463     0.83400
N1248       N  0.28044007  0.28107641  0.29423029    -0.79100
C1249       C  0.82428726  0.27576207  0.74437004     0.19300
C1250       C  0.82618012  0.28922158  0.74382505    -0.18800
C1251       C  0.83763490  0.29473890  0.74820592    -0.11100
C1252       C  0.84751347  0.28683278  0.75311979     0.21500
C1253       C  0.84569628  0.27338314  0.75340042    -0.20400
C1254       C  0.83426728  0.26789433  0.74911246    -0.11300
C1255       C  0.86006869  0.29203893  0.75745475    -0.15400
C1256       C  0.86196937  0.30421280  0.76165270    -0.29300
C1257       C  0.81203504  0.27014535  0.73958105    -0.03500
C1258       C  0.80749086  0.25868248  0.74389173    -0.40100
H1259       H  0.81874445  0.29550328  0.74002246     0.12700
H1260       H  0.83880061  0.30511145  0.74745940     0.12300
H1261       H  0.85321155  0.26703728  0.75693768     0.11800
H1262       H  0.83344939  0.25747008  0.74926263     0.12000
H1263       H  0.86803100  0.28526592  0.75767477     0.14700
H1264       H  0.85400405  0.31095267  0.76222207     0.13500
H1265       H  0.80642347  0.27578166  0.73267424     0.11200
H1266       H  0.81261233  0.25341382  0.75143272     0.13200
C1267       C  0.15719160  0.27456097  0.75125623     0.19300
C1268       C  0.16185814  0.28702058  0.75380132    -0.18800
C1269       C  0.17368807  0.29106262  0.74877239    -0.11100
C1270       C  0.18109421  0.28272265  0.74095034     0.21500
C1271       C  0.17625809  0.27037087  0.73815370    -0.20400
C1272       C  0.16448074  0.26629662  0.74327389    -0.11300
C1273       C  0.19359622  0.28667316  0.73509282    -0.15400
C1274       C  0.20089080  0.29636771  0.73969057    -0.29300
C1275       C  0.14453957  0.27064522  0.75672076    -0.03500
C1276       C  0.14162332  0.25830649  0.75981130    -0.40100
H1277       H  0.15634394  0.29364172  0.75975859     0.12700
H1278       H  0.17680679  0.30081092  0.75083113     0.12300
H1279       H  0.18162937  0.26382474  0.73197865     0.11800
H1280       H  0.16100606  0.25677413  0.74075054     0.12000
H1281       H  0.19705904  0.28113605  0.72680663     0.14700
H1282       H  0.19792827  0.30165457  0.74830405     0.13500
H1283       H  0.13770286  0.27825353  0.75894352     0.11200
H1284       H  0.14875565  0.25076178  0.75858294     0.13200
C1285       C  0.99035213  0.28796627  0.77611128     0.19300
C1286       C  0.00195016  0.29444009  0.77383463    -0.18800
C1287       C  0.01363665  0.28798498  0.77511096    -0.11100
C1288       C  0.01400732  0.27482543  0.77875608     0.21500
C1289       C  0.00237781  0.26833486  0.78099556    -0.20400
C1290       C  0.99066925  0.27479967  0.77966838    -0.11300
C1291       C  0.02622283  0.26770779  0.78102738    -0.15400
C1292       C  0.03779472  0.27186831  0.77691522    -0.29300
C1293       C  0.97829965  0.29560349  0.77578493    -0.03500
C1294       C  0.96657830  0.29050994  0.77404661    -0.40100
H1295       H  0.00198124  0.30462441  0.77126493     0.12700
H1296       H  0.02228252  0.29352999  0.77362459     0.12300
H1297       H  0.00235343  0.25825891  0.78397607     0.11800
H1298       H  0.98195546  0.26956738  0.78188213     0.12000
H1299       H  0.02558256  0.25857775  0.78628064     0.14700
H1300       H  0.03869290  0.28066837  0.77119015     0.13500
H1301       H  0.97920953  0.30599670  0.77693832     0.11200
H1302       H  0.96545934  0.28029734  0.77195281     0.13200
C1303       C  0.00051010  0.02604174  0.91310600     0.19300
C1304       C  0.99903523  0.01261139  0.91487258    -0.18800
C1305       C  0.99377113  0.00752681  0.92644053    -0.11100
C1306       C  0.98975468  0.01580257  0.93652990     0.21500
C1307       C  0.99117732  0.02921450  0.93475389    -0.20400
C1308       C  0.99650726  0.03429530  0.92323946    -0.11300
C1309       C  0.98329138  0.01093892  0.94863009    -0.15400
C1310       C  0.98495381  0.99895429  0.95365412    -0.29300
C1311       C  0.00565069  0.03101710  0.90036457    -0.03500
C1312       C  0.01033393  0.04307021  0.89855065    -0.40100
H1313       H  0.00186217  0.00601037  0.90720646     0.12700
H1314       H  0.99251497  0.99716025  0.92725486     0.12300
H1315       H  0.98802375  0.03582783  0.94228181     0.11800
H1316       H  0.99708531  0.04469553  0.92224517     0.12000
H1317       H  0.97713459  0.01768258  0.95380440     0.14700
H1318       H  0.99168973  0.99234520  0.94912029     0.13500
H1319       H  0.00576611  0.02436071  0.89221343     0.11200
H1320       H  0.01089814  0.04968870  0.90668194     0.13200
C1321       C  0.06779643  0.13926928  0.82886928     0.19300
C1322       C  0.07829345  0.14224176  0.82078005    -0.18800
C1323       C  0.08096712  0.15505676  0.81715632    -0.11100
C1324       C  0.07311934  0.16525896  0.82152114     0.21500
C1325       C  0.06265673  0.16227186  0.82966191    -0.20400
C1326       C  0.06000705  0.14946471  0.83330763    -0.11300
C1327       C  0.07490010  0.17897243  0.81719477    -0.15400
C1328       C  0.08552895  0.18362503  0.81131481    -0.29300
C1329       C  0.06477942  0.12541109  0.83162196    -0.03500
C1330       C  0.05736123  0.12128915  0.84162682    -0.40100
H1331       H  0.08435932  0.13457624  0.81707401     0.12700
H1332       H  0.08893802  0.15678093  0.81062185     0.12300
H1333       H  0.05634198  0.16987791  0.83304552     0.11800
H1334       H  0.05160267  0.14761221  0.83922099     0.12000
H1335       H  0.06696701  0.18553485  0.81893248     0.14700
H1336       H  0.09383166  0.17748876  0.80994556     0.13500
H1337       H  0.06894146  0.11830468  0.82509213     0.11200
H1338       H  0.05371324  0.12811683  0.84872771     0.13200
C1339       C  0.99993401  0.02699137  0.57577810     0.19300
C1340       C  0.00737358  0.03248922  0.58568756    -0.18800
C1341       C  0.01079591  0.02528131  0.59675617    -0.11100
C1342       C  0.00693496  0.01230097  0.59814218     0.21500
C1343       C  0.99978447  0.00667468  0.58810266    -0.20400
C1344       C  0.99625441  0.01392151  0.57706793    -0.11300
C1345       C  0.01074877  0.00425623  0.60961283    -0.15400
C1346       C  0.01266318  0.00924458  0.62155988    -0.29300
C1347       C  0.99652463  0.03516761  0.56421764    -0.03500
C1348       C  0.98680308  0.03259055  0.55601597    -0.40100
H1349       H  0.01053116  0.04245058  0.58488814     0.12700
H1350       H  0.01668691  0.02982643  0.60406484     0.12300
H1351       H  0.99687554  0.99663031  0.58882185     0.11800
H1352       H  0.99086917  0.00914980  0.56952521     0.12000
H1353       H  0.01161773  0.99387458  0.60824581     0.14700
H1354       H  0.01088781  0.01945645  0.62323678     0.13500
H1355       H  0.00193807  0.04403674  0.56276114     0.11200
H1356       H  0.98087749  0.02411585  0.55758256     0.13200
C1357       C  0.03847904  0.03171183  0.76875695     0.19300
C1358       C  0.04935071  0.02902252  0.76115974    -0.18800
C1359       C  0.04812227  0.02422407  0.74850217    -0.11100
C1360       C  0.03595241  0.02217527  0.74310064     0.21500
C1361       C  0.02507207  0.02533245  0.75051517    -0.20400
C1362       C  0.02630345  0.02995440  0.76327389    -0.11300
C1363       C  0.03437896  0.01688917  0.72973889    -0.15400
C1364       C  0.04262320  0.00822698  0.72471457    -0.29300
C1365       C  0.04021252  0.03696415  0.78208163    -0.03500
C1366       C  0.03194176  0.03480285  0.79198036    -0.40100
H1367       H  0.05882453  0.03054683  0.76507416     0.12700
H1368       H  0.05672434  0.02230546  0.74290076     0.12300
H1369       H  0.01561191  0.02404663  0.74649136     0.11800
H1370       H  0.01773432  0.03235959  0.76872867     0.12000
H1371       H  0.02590786  0.01958035  0.72427648     0.14700
H1372       H  0.05054068  0.00476123  0.73058614     0.13500
H1373       H  0.04890679  0.04237248  0.78389732     0.11200
H1374       H  0.02371895  0.02858343  0.79057721     0.13200
C1375       C  0.93409711  0.39560566  0.82150982     0.19300
C1376       C  0.94467024  0.39711450  0.82977184    -0.18800
C1377       C  0.94747437  0.40912183  0.83530994    -0.11100
C1378       C  0.93975314  0.41997044  0.83264803     0.21500
C1379       C  0.92908870  0.41844049  0.82451797    -0.20400
C1380       C  0.92625218  0.40641678  0.81901983    -0.11300
C1381       C  0.94323276  0.43323387  0.83696279    -0.15400
C1382       C  0.95117138  0.43583881  0.84694319    -0.29300
C1383       C  0.93217058  0.38286739  0.81506791    -0.03500
C1384       C  0.92121609  0.37910139  0.80934253    -0.40100
H1385       H  0.95096732  0.38900241  0.83175011     0.12700
H1386       H  0.95598410  0.40993640  0.84119758     0.12300
H1387       H  0.92308670  0.42667279  0.82214963     0.11800
H1388       H  0.91820524  0.40582482  0.81247174     0.12000
H1389       H  0.93922057  0.44123482  0.83141063     0.14700
H1390       H  0.95463343  0.42812257  0.85322285     0.13500
H1391       H  0.94022003  0.37620903  0.81521530     0.11200
H1392       H  0.91279595  0.38524081  0.80964528     0.13200
C1393       C  0.00435284  0.52892255  0.60455865     0.19300
C1394       C  0.00630397  0.51555277  0.60295842    -0.18800
C1395       C  0.01138059  0.51060461  0.59131171    -0.11100
C1396       C  0.01477507  0.51894760  0.58095127     0.21500
C1397       C  0.01293837  0.53233042  0.58256896    -0.20400
C1398       C  0.00772468  0.53727757  0.59417598    -0.11300
C1399       C  0.02098133  0.51411811  0.56872490    -0.15400
C1400       C  0.01920414  0.50210806  0.56391494    -0.29300
C1401       C  0.99947638  0.53369919  0.61743221    -0.03500
C1402       C  0.99391848  0.54535794  0.61931608    -0.40100
H1403       H  0.00397958  0.50888337  0.61081774     0.12700
H1404       H  0.01298911  0.50028428  0.59063193     0.12300
H1405       H  0.01562908  0.53900693  0.57483537     0.11800
H1406       H  0.00672111  0.54765268  0.59507606     0.12000
H1407       H  0.02700762  0.52085264  0.56331710     0.14700
H1408       H  0.01253058  0.49556867  0.56870095     0.13500
H1409       H  0.00022516  0.52709813  0.62567637     0.11200
H1410       H  0.99239655  0.55183749  0.61110409     0.13200
C1411       C  0.98946016  0.53990608  0.75296294     0.19300
C1412       C  0.98163481  0.54428460  0.76320466    -0.18800
C1413       C  0.98306089  0.53941524  0.77584513    -0.11100
C1414       C  0.99249198  0.53012879  0.77861494     0.21500
C1415       C  0.00080449  0.52619858  0.76857736    -0.20400
C1416       C  0.99925461  0.53095379  0.75580148    -0.11300
C1417       C  0.99334934  0.52420162  0.79183351    -0.15400
C1418       C  0.98269815  0.52062245  0.79830028    -0.29300
C1419       C  0.98682594  0.54498190  0.73961369    -0.03500
C1420       C  0.99050265  0.53932743  0.72836434    -0.40100
H1421       H  0.97413508  0.55130926  0.76136524     0.12700
H1422       H  0.97671655  0.54285118  0.78345641     0.12300
H1423       H  0.00823651  0.51914109  0.77054213     0.11800
H1424       H  0.00569929  0.52760586  0.74825898     0.12000
H1425       H  0.00268505  0.52179109  0.79578770     0.14700
H1426       H  0.97346663  0.52176586  0.79359531     0.13500
H1427       H  0.98080288  0.55352983  0.73911297     0.11200
H1428       H  0.99648532  0.53074835  0.72847178     0.13200
C1429       C  0.16249060  0.77770885  0.75226767     0.19300
C1430       C  0.17170090  0.78473738  0.75918056    -0.18800
C1431       C  0.18251688  0.77858164  0.76436996    -0.11100
C1432       C  0.18445629  0.76519102  0.76265990     0.21500
C1433       C  0.17541318  0.75824365  0.75540988    -0.20400
C1434       C  0.16452602  0.76438438  0.75033384    -0.11300
C1435       C  0.19585752  0.75820778  0.76802622    -0.15400
C1436       C  0.20251158  0.76237612  0.77843334    -0.29300
C1437       C  0.15109329  0.78463461  0.74693904    -0.03500
C1438       C  0.13961143  0.77894351  0.74543552    -0.40100
H1439       H  0.17047461  0.79503995  0.76065993     0.12700
H1440       H  0.18941338  0.78442105  0.76950204     0.12300
H1441       H  0.17672594  0.74798526  0.75374758     0.11800
H1442       H  0.15784148  0.75871442  0.74472395     0.12000
H1443       H  0.19843959  0.74900103  0.76367949     0.14700
H1444       H  0.19954271  0.77113407  0.78337849     0.13500
H1445       H  0.15197142  0.79495284  0.74503062     0.11200
H1446       H  0.13834514  0.76889881  0.74833614     0.13200
C1447       C  0.07226989  0.90572386  0.67869394     0.19300
C1448       C  0.08310258  0.90241982  0.68605450    -0.18800
C1449       C  0.08541455  0.88958240  0.68977866    -0.11100
C1450       C  0.07685938  0.87971907  0.68625878     0.21500
C1451       C  0.06612425  0.88298867  0.67872360    -0.20400
C1452       C  0.06384582  0.89582670  0.67494343    -0.11300
C1453       C  0.07803700  0.86625293  0.69136176    -0.15400
C1454       C  0.08891212  0.86108002  0.69614350    -0.29300
C1455       C  0.06948024  0.91966549  0.67631544    -0.03500
C1456       C  0.06140399  0.92417018  0.66712511    -0.40100
H1457       H  0.08964659  0.90986873  0.68924110     0.12700
H1458       H  0.09358857  0.88758410  0.69589152     0.12300
H1459       H  0.05927650  0.87562132  0.67604389     0.11800
H1460       H  0.05519565  0.89797792  0.66960147     0.12000
H1461       H  0.06940019  0.86043627  0.69139481     0.14700
H1462       H  0.09786574  0.86631743  0.69544128     0.13500
H1463       H  0.07423504  0.92653039  0.68263025     0.11200
H1464       H  0.05715656  0.91763623  0.66013308     0.13200
C1465       C  0.82113349  0.77985670  0.77868443     0.19300
C1466       C  0.82261508  0.76640991  0.77733263    -0.18800
C1467       C  0.83384870  0.76119560  0.77194374    -0.11100
C1468       C  0.84391361  0.76937803  0.76791631     0.21500
C1469       C  0.84246725  0.78279210  0.76947343    -0.20400
C1470       C  0.83125220  0.78798610  0.77476117    -0.11300
C1471       C  0.85633994  0.76446606  0.76274203    -0.15400
C1472       C  0.85827146  0.75255463  0.75779860    -0.29300
C1473       C  0.80919478  0.78514872  0.78464277    -0.03500
C1474       C  0.80469353  0.79703943  0.78171817    -0.40100
H1475       H  0.81504518  0.75991850  0.78045011     0.12700
H1476       H  0.83468643  0.75079085  0.77126090     0.12300
H1477       H  0.85012228  0.78932669  0.76666005     0.11800
H1478       H  0.83069509  0.79835358  0.77605066     0.12000
H1479       H  0.86427442  0.77124179  0.76278363     0.14700
H1480       H  0.85039435  0.74577494  0.75702676     0.13500
H1481       H  0.80376892  0.77894880  0.79124727     0.11200
H1482       H  0.80956125  0.80289408  0.77439658     0.13200
C1483       C  0.93181639  0.63250041  0.69802389     0.19300
C1484       C  0.93123921  0.63536348  0.71140336    -0.18800
C1485       C  0.92636649  0.64716934  0.71573758    -0.11100
C1486       C  0.92180846  0.65640554  0.70677847     0.21500
C1487       C  0.92187054  0.65341266  0.69342342    -0.20400
C1488       C  0.92693320  0.64160549  0.68903702    -0.11300
C1489       C  0.91731426  0.66928793  0.71127709    -0.15400
C1490       C  0.92370076  0.67572381  0.72054825    -0.29300
C1491       C  0.93733715  0.61978972  0.69414057    -0.03500
C1492       C  0.94169340  0.61672149  0.68211506    -0.40100
H1493       H  0.93474662  0.62847519  0.71857722     0.12700
H1494       H  0.92615844  0.64907758  0.72611819     0.12300
H1495       H  0.91828847  0.66035527  0.68635569     0.11800
H1496       H  0.92689847  0.63964377  0.67868582     0.12000
H1497       H  0.90941544  0.67395798  0.70623948     0.14700
H1498       H  0.93239013  0.67152656  0.72454964     0.13500
H1499       H  0.93834760  0.61273332  0.70196385     0.11200
H1500       H  0.94120180  0.62370433  0.67416933     0.13200
C1501       C  0.01089501  0.78180670  0.74229190     0.19300
C1502       C  0.99951545  0.78893162  0.74085801    -0.18800
C1503       C  0.98756916  0.78299793  0.74258794    -0.11100
C1504       C  0.98679455  0.76974220  0.74576806     0.21500
C1505       C  0.99816941  0.76266812  0.74718828    -0.20400
C1506       C  0.01004779  0.76855557  0.74542438    -0.11300
C1507       C  0.97454067  0.76252281  0.74687713    -0.15400
C1508       C  0.96276984  0.76782634  0.74721403    -0.29300
C1509       C  0.02338625  0.78832424  0.73981962    -0.03500
C1510       C  0.03473653  0.78341277  0.74362086    -0.40100
H1511       H  0.99986938  0.79911374  0.73827063     0.12700
H1512       H  0.97906439  0.78877606  0.74112409     0.12300
H1513       H  0.99788347  0.75240884  0.74944976     0.11800
H1514       H  0.01844869  0.76251250  0.74617712     0.12000
H1515       H  0.97536088  0.75206010  0.74740398     0.14700
H1516       H  0.96148384  0.77823856  0.74738781     0.13500
H1517       H  0.02317098  0.79754069  0.73466559     0.11200
H1518       H  0.03519125  0.77449738  0.74922490     0.13200
C1519       C  0.01815819  0.53707986  0.94388254     0.19300
C1520       C  0.00551299  0.53303881  0.94181409    -0.18800
C1521       C  0.00180401  0.52809747  0.92968513    -0.11100
C1522       C  0.01064862  0.52738145  0.91930298     0.21500
C1523       C  0.02310047  0.53200369  0.92120204    -0.20400
C1524       C  0.02687126  0.53669107  0.93337242    -0.11300
C1525       C  0.00717661  0.52204821  0.90634484    -0.15400
C1526       C  0.99929657  0.51186544  0.90496762    -0.29300
C1527       C  0.02206018  0.54171573  0.95701121    -0.03500
C1528       C  0.03383286  0.53948947  0.96180554    -0.40100
H1529       H  0.99856031  0.53344847  0.94969052     0.12700
H1530       H  0.99202536  0.52495267  0.92840344     0.12300
H1531       H  0.03002498  0.53174866  0.91329394     0.11800
H1532       H  0.03657481  0.54010960  0.93450115     0.12000
H1533       H  0.01203327  0.52598917  0.89779814     0.14700
H1534       H  0.99517427  0.50727431  0.91358905     0.13500
H1535       H  0.01488948  0.54631143  0.96315521     0.11200
H1536       H  0.04065201  0.53393645  0.95608290     0.13200
C1537       C  0.25203992  0.76377044  0.18650972     0.19300
C1538       C  0.23881588  0.76336032  0.18414477    -0.18800
C1539       C  0.23379348  0.76774178  0.17221077    -0.11100
C1540       C  0.24194614  0.77247198  0.16228071     0.21500
C1541       C  0.25517729  0.77254919  0.16453622    -0.20400
C1542       C  0.26017150  0.76831680  0.17648360    -0.11300
C1543       C  0.23715385  0.77688055  0.14927418    -0.15400
C1544       C  0.22536644  0.78179535  0.14729146    -0.29300
C1545       C  0.25715655  0.75902582  0.19928965    -0.03500
C1546       C  0.26806280  0.76363784  0.20445945    -0.40100
H1547       H  0.23234372  0.75970547  0.19158685     0.12700
H1548       H  0.22357422  0.76715024  0.17071092     0.12300
H1549       H  0.26170069  0.77593078  0.15701152     0.11800
H1550       H  0.27044497  0.76836838  0.17770276     0.12000
H1551       H  0.24384967  0.77663079  0.14114874     0.14700
H1552       H  0.21884460  0.78291535  0.15547427     0.13500
H1553       H  0.25162579  0.75189465  0.20472911     0.11200
H1554       H  0.27313099  0.77138276  0.19944701     0.13200
C1555       C  0.24874163  0.75839331  0.83265891     0.19300
C1556       C  0.26200317  0.75810694  0.83477755    -0.18800
C1557       C  0.26721037  0.76259103  0.84649317    -0.11100
C1558       C  0.25922976  0.76734912  0.85648713     0.21500
C1559       C  0.24592871  0.76728283  0.85450829    -0.20400
C1560       C  0.24073165  0.76293993  0.84272086    -0.11300
C1561       C  0.26434161  0.77198808  0.86923787    -0.15400
C1562       C  0.27633261  0.77653250  0.87085433    -0.29300
C1563       C  0.24363962  0.75347278  0.82003806    -0.03500
C1564       C  0.23269120  0.75776288  0.81458246    -0.40100
H1565       H  0.26838075  0.75446282  0.82729310     0.12700
H1566       H  0.27746365  0.76205342  0.84774835     0.12300
H1567       H  0.23952701  0.77066475  0.86209931     0.11800
H1568       H  0.23043879  0.76293040  0.84162684     0.12000
H1569       H  0.25777874  0.77212094  0.87747573     0.14700
H1570       H  0.28277447  0.77722076  0.86255504     0.13500
H1571       H  0.24948550  0.74657152  0.81472100     0.11200
H1572       H  0.22717542  0.76526870  0.81938311     0.13200
C1573       C  0.25495822  0.78135097  0.99546925     0.19300
C1574       C  0.24189509  0.77936739  0.99792578    -0.18800
C1575       C  0.23722254  0.77907418  0.01076509    -0.11100
C1576       C  0.24557937  0.78063421  0.02138818     0.21500
C1577       C  0.25874284  0.78159124  0.01893731    -0.20400
C1578       C  0.26339409  0.78198935  0.00612024    -0.11300
C1579       C  0.24082765  0.78196405  0.03503018    -0.15400
C1580       C  0.22977073  0.78805833  0.03767612    -0.29300
C1581       C  0.25955203  0.78303123  0.98178887    -0.03500
C1582       C  0.26939968  0.79092577  0.97889808    -0.40100
H1583       H  0.23525199  0.77853267  0.98991041     0.12700
H1584       H  0.22704602  0.77782150  0.01234538     0.12300
H1585       H  0.26538783  0.78254756  0.02693463     0.11800
H1586       H  0.27360717  0.78294943  0.00458683     0.12000
H1587       H  0.24708299  0.77916032  0.04298408     0.14700
H1588       H  0.22400430  0.79173541  0.02969020     0.13500
H1589       H  0.25439486  0.77828986  0.97401065     0.11200
H1590       H  0.27400177  0.79625585  0.98664713     0.13200
C1591       C  0.99470669  0.94838179  0.99321647     0.19300
C1592       C  0.00774665  0.94641388  0.99578855    -0.18800
C1593       C  0.01203700  0.93489608  0.00161183    -0.11100
C1594       C  0.00335566  0.92496126  0.00489103     0.21500
C1595       C  0.99032149  0.92688391  0.00214552    -0.20400
C1596       C  0.98602081  0.93846046  0.99644160    -0.11300
C1597       C  0.00751917  0.91225197  0.01051719    -0.15400
C1598       C  0.01881590  0.91024412  0.01654074    -0.29300
C1599       C  0.99060883  0.96059086  0.98659008    -0.03500
C1600       C  0.97900587  0.96603875  0.98834134    -0.40100
H1601       H  0.01465990  0.95382131  0.99324871     0.12700
H1602       H  0.02219326  0.93374111  0.00316954     0.12300
H1603       H  0.98342837  0.91935553  0.00436044     0.11800
H1604       H  0.97594805  0.93946563  0.99426050     0.12000
H1605       H  0.00082794  0.90426539  0.00984777     0.14700
H1606       H  0.02537481  0.91821570  0.01796070     0.13500
H1607       H  0.99762163  0.96557032  0.98052158     0.11200
H1608       H  0.97226012  0.96168666  0.99515499     0.13200
C1609       C  0.13216884  0.84281048  0.09093415     0.19300
C1610       C  0.12070311  0.83760166  0.09580262    -0.18800
C1611       C  0.10890618  0.84194161  0.09105760    -0.11100
C1612       C  0.10834768  0.85165994  0.08134938     0.21500
C1613       C  0.11978195  0.85745949  0.07714372    -0.20400
C1614       C  0.13156780  0.85309476  0.08185666    -0.11300
C1615       C  0.09610696  0.85576142  0.07517628    -0.15400
C1616       C  0.08608232  0.84771476  0.07408046    -0.29300
C1617       C  0.14455105  0.83695060  0.09502717    -0.03500
C1618       C  0.15465731  0.83651220  0.08688154    -0.40100
H1619       H  0.12088278  0.82985201  0.10297256     0.12700
H1620       H  0.10027757  0.83759215  0.09496202     0.12300
H1621       H  0.11962386  0.86512814  0.06988997     0.11800
H1622       H  0.14018836  0.85771782  0.07825948     0.12000
H1623       H  0.09571976  0.86521541  0.07050477     0.14700
H1624       H  0.08669381  0.83796450  0.07802415     0.13500
H1625       H  0.14493896  0.83176357  0.10427466     0.11200
H1626       H  0.15392677  0.84080697  0.07721683     0.13200
C1627       C  0.00351365  0.60866968  0.01268207     0.19300
C1628       C  0.01680185  0.60673747  0.01212831    -0.18800
C1629       C  0.02193695  0.59519031  0.00731256    -0.11100
C1630       C  0.01387116  0.58531610  0.00279364     0.21500
C1631       C  0.00058525  0.58726209  0.00322333    -0.20400
C1632       C  0.99543113  0.59876644  0.00818716    -0.11300
C1633       C  0.01908954  0.57334555  0.99674462    -0.15400
C1634       C  0.03030077  0.56800093  0.00033750    -0.29300
C1635       C  0.99857183  0.62139463  0.01731089    -0.03500
C1636       C  0.98664659  0.62326249  0.02198003    -0.40100
H1637       H  0.02325654  0.61424996  0.01533769     0.12700
H1638       H  0.03223039  0.59420768  0.00674961     0.12300
H1639       H  0.99417824  0.57988853  0.99961694     0.11800
H1640       H  0.98515787  0.59998672  0.00808581     0.12000
H1641       H  0.01345537  0.56874513  0.98920047     0.14700
H1642       H  0.03554649  0.57202174  0.00847625     0.13500
H1643       H  0.00519861  0.62947033  0.01719587     0.11200
H1644       H  0.98011478  0.61517011  0.02294882     0.13200
C1645       C  0.00433608  0.77982976  0.02922851     0.19300
C1646       C  0.01198841  0.76865027  0.02940506    -0.18800
C1647       C  0.00650378  0.75636009  0.02847003    -0.11100
C1648       C  0.99317029  0.75498735  0.02737861     0.21500
C1649       C  0.98553910  0.76618834  0.02700408    -0.20400
C1650       C  0.99103097  0.77848028  0.02790907    -0.11300
C1651       C  0.98670793  0.74217934  0.02786434    -0.15400
C1652       C  0.99260600  0.73071378  0.02605513    -0.29300
C1653       C  0.01052464  0.79254224  0.03150208    -0.03500
C1654       C  0.00528822  0.80407460  0.02839641    -0.40100
H1655       H  0.02224783  0.76941565  0.03055984     0.12700
H1656       H  0.01273927  0.74802717  0.02913892     0.12300
H1657       H  0.97523675  0.76541599  0.02634736     0.11800
H1658       H  0.98475455  0.78681126  0.02808856     0.12000
H1659       H  0.97655558  0.74226021  0.03009275     0.14700
H1660       H  0.00254307  0.73028164  0.02304047     0.13500
H1661       H  0.01998035  0.79231237  0.03582104     0.11200
H1662       H  0.99627103  0.80460237  0.02323868     0.13200
C1663       C  0.36868043  0.83691562  0.94208833     0.19300
C1664       C  0.37062994  0.84727518  0.95067577    -0.18800
C1665       C  0.38286779  0.85016417  0.95533021    -0.11100
C1666       C  0.39348598  0.84265549  0.95154043     0.21500
C1667       C  0.39155401  0.83246854  0.94273364    -0.20400
C1668       C  0.37933166  0.82962334  0.93803661    -0.11300
C1669       C  0.40649018  0.84437192  0.95720965    -0.15400
C1670       C  0.41036318  0.85480489  0.96398443    -0.29300
C1671       C  0.35533394  0.83319012  0.93873910    -0.03500
C1672       C  0.35207814  0.82588429  0.92839879    -0.40100
H1673       H  0.36257700  0.85296608  0.95407373     0.12700
H1674       H  0.38379791  0.85793978  0.96226887     0.12300
H1675       H  0.39951233  0.82643825  0.93971987     0.11800
H1676       H  0.37822789  0.82135788  0.93171834     0.12000
H1677       H  0.41323226  0.83651051  0.95568833     0.14700
H1678       H  0.40413437  0.86313182  0.96510558     0.13500
H1679       H  0.34783723  0.83651127  0.94529908     0.11200
H1680       H  0.35921476  0.82320010  0.92117527     0.13200
C1681       C  0.49853281  0.59170100  0.01343935     0.19300
C1682       C  0.51166651  0.59444190  0.01414812    -0.18800
C1683       C  0.51675000  0.60564242  0.00834808    -0.11100
C1684       C  0.50876363  0.61448294  0.00176208     0.21500
C1685       C  0.49561101  0.61179076  0.00112553    -0.20400
C1686       C  0.49054025  0.60051835  0.00682334    -0.11300
C1687       C  0.51366665  0.62694551  0.99622381    -0.15400
C1688       C  0.52589603  0.62879507  0.99240871    -0.29300
C1689       C  0.49347925  0.58000669  0.02038161    -0.03500
C1690       C  0.48247461  0.57400507  0.01724068    -0.40100
H1691       H  0.51802344  0.58793262  0.01932733     0.12700
H1692       H  0.52686331  0.60751744  0.00943010     0.12300
H1693       H  0.48920050  0.61850927  0.99628907     0.11800
H1694       H  0.48032208  0.59898243  0.00636661     0.12000
H1695       H  0.50685539  0.63481157  0.99505178     0.14700
H1696       H  0.53261792  0.62078684  0.99270606     0.13500
H1697       H  0.49926615  0.57599109  0.02820569     0.11200
H1698       H  0.47695633  0.57737798  0.00894702     0.13200
C1699       C  0.50434813  0.78386390  0.98194262     0.19300
C1700       C  0.49760551  0.77223256  0.98036435    -0.18800
C1701       C  0.50401084  0.76036000  0.97993847    -0.11100
C1702       C  0.51740119  0.75982086  0.98106282     0.21500
C1703       C  0.52419809  0.77146964  0.98233846    -0.20400
C1704       C  0.51777380  0.78337223  0.98281116    -0.11300
C1705       C  0.52462465  0.74741361  0.98025439    -0.15400
C1706       C  0.51942575  0.73570373  0.98274650    -0.29300
C1707       C  0.49692605  0.79618028  0.98225914    -0.03500
C1708       C  0.50136548  0.80754021  0.98680238    -0.40100
H1709       H  0.48728807  0.77231852  0.97944853     0.12700
H1710       H  0.49842104  0.75170589  0.97843879     0.12300
H1711       H  0.53453818  0.77136237  0.98296815     0.11800
H1712       H  0.52339521  0.79209880  0.98362977     0.12000
H1713       H  0.53468373  0.74802759  0.97766745     0.14700
H1714       H  0.50959572  0.73492182  0.98606229     0.13500
H1715       H  0.48709138  0.79566097  0.97898672     0.11200
H1716       H  0.51101144  0.80827919  0.99054221     0.13200
C1717       C  0.75276855  0.78731115  0.19689022     0.19300
C1718       C  0.76581350  0.78820520  0.19360558    -0.18800
C1719       C  0.77053253  0.78299142  0.18190021    -0.11100
C1720       C  0.76226181  0.77681774  0.17308675     0.21500
C1721       C  0.74919643  0.77611099  0.17627743    -0.20400
C1722       C  0.74449758  0.78123466  0.18800937    -0.11300
C1723       C  0.76673847  0.77149949  0.16028046    -0.15400
C1724       C  0.77886459  0.76766348  0.15791640    -0.29300
C1725       C  0.74804758  0.79334169  0.20928841    -0.03500
C1726       C  0.73708591  0.78980681  0.21535888    -0.40100
H1727       H  0.77239318  0.79299801  0.20011798     0.12700
H1728       H  0.78059481  0.78411228  0.17967936     0.12300
H1729       H  0.74255959  0.77159287  0.16962987     0.11800
H1730       H  0.73432721  0.78068624  0.18987256     0.12000
H1731       H  0.75963493  0.77019108  0.15271581     0.14700
H1732       H  0.78588818  0.76809225  0.16564522     0.13500
H1733       H  0.75394430  0.80076827  0.21368508     0.11200
H1734       H  0.73147552  0.78191102  0.21148042     0.13200
C1735       C  0.89429988  0.69445686  0.08167720     0.19300
C1736       C  0.89240054  0.70531171  0.08964948    -0.18800
C1737       C  0.88021351  0.70847312  0.09435218    -0.11100
C1738       C  0.86957591  0.70082639  0.09112858     0.21500
C1739       C  0.87151648  0.68980410  0.08339728    -0.20400
C1740       C  0.88371874  0.68661396  0.07872997    -0.11300
C1741       C  0.85623276  0.70473161  0.09440564    -0.15400
C1742       C  0.85303106  0.71326793  0.10377782    -0.29300
C1743       C  0.90717336  0.69241254  0.07575037    -0.03500
C1744       C  0.91117932  0.68127843  0.07027590    -0.40100
H1745       H  0.90034824  0.71160431  0.09196716     0.12700
H1746       H  0.87914118  0.71722435  0.09998193     0.12300
H1747       H  0.86347392  0.68382340  0.08063148     0.11800
H1748       H  0.88465909  0.67834607  0.07238229     0.12000
H1749       H  0.84868333  0.70051610  0.08855563     0.14700
H1750       H  0.86021990  0.71698399  0.11036869     0.13500
H1751       H  0.91366751  0.70060904  0.07589720     0.11200
H1752       H  0.90525811  0.67266974  0.07069298     0.13200
C1753       C  0.76829649  0.78328516  0.83482201     0.19300
C1754       C  0.77528215  0.77939995  0.84585281    -0.18800
C1755       C  0.76904543  0.77438607  0.85694192    -0.11100
C1756       C  0.75563316  0.77302981  0.85716537     0.21500
C1757       C  0.74871188  0.77670403  0.84602595    -0.20400
C1758       C  0.75492387  0.78179021  0.83501061    -0.11300
C1759       C  0.74847043  0.76740058  0.86849212    -0.15400
C1760       C  0.75301193  0.76665676  0.88076335    -0.29300
C1761       C  0.77518230  0.78850492  0.82313678    -0.03500
C1762       C  0.76985536  0.79720279  0.81495156    -0.40100
H1763       H  0.78560400  0.78029528  0.84590600     0.12700
H1764       H  0.77480763  0.77135748  0.86514880     0.12300
H1765       H  0.73840809  0.77561129  0.84582432     0.11800
H1766       H  0.74923410  0.78427968  0.82656433     0.12000
H1767       H  0.73877715  0.76413689  0.86666164     0.14700
H1768       H  0.76241358  0.77044626  0.88301210     0.13500
H1769       H  0.78507247  0.78562570  0.82161444     0.11200
H1770       H  0.76035267  0.80091397  0.81703766     0.13200
C1771       C  0.62319868  0.69788533  0.93834945     0.19300
C1772       C  0.62636580  0.70664599  0.92829763    -0.18800
C1773       C  0.63914292  0.70994905  0.92576179    -0.11100
C1774       C  0.64903613  0.70459923  0.93336903     0.21500
C1775       C  0.64584068  0.69561560  0.94320764    -0.20400
C1776       C  0.63311116  0.69227802  0.94568503    -0.11300
C1777       C  0.66260954  0.70886605  0.93233533    -0.15400
C1778       C  0.66758425  0.71624793  0.92266356    -0.29300
C1779       C  0.60953057  0.69588524  0.94190187    -0.03500
C1780       C  0.60514132  0.68531653  0.94826779    -0.40100
H1781       H  0.61888591  0.71121231  0.92259442     0.12700
H1782       H  0.64109538  0.71705153  0.91823192     0.12300
H1783       H  0.65322514  0.69143479  0.94932489     0.11800
H1784       H  0.63107061  0.68579678  0.95375746     0.12000
H1785       H  0.66882780  0.70588768  0.94027111     0.14700
H1786       H  0.66193456  0.71885453  0.91419560     0.13500
H1787       H  0.60287426  0.70358198  0.93937957     0.11200
H1788       H  0.61139807  0.67709397  0.94997934     0.13200
C1789       C  0.76092655  0.75599767  0.03207437     0.19300
C1790       C  0.74813252  0.75828236  0.02866182    -0.18800
C1791       C  0.74449872  0.75876026  0.01551735    -0.11100
C1792       C  0.75366322  0.75714452  0.00554158     0.21500
C1793       C  0.76654088  0.75562259  0.00894796    -0.20400
C1794       C  0.77014767  0.75499066  0.02205621    -0.11300
C1795       C  0.75012557  0.75669649  0.99152743    -0.15400
C1796       C  0.73921271  0.75119522  0.98749151    -0.29300
C1797       C  0.76442870  0.75462251  0.04609314    -0.03500
C1798       C  0.77406183  0.74688277  0.04994583    -0.40100
H1799       H  0.74089519  0.75934853  0.03617677     0.12700
H1800       H  0.73452643  0.76035700  0.01318125     0.12300
H1801       H  0.77379116  0.75455984  0.00144435     0.11800
H1802       H  0.78017751  0.75373053  0.02429867     0.12000
H1803       H  0.75720713  0.75973418  0.98436657     0.14700
H1804       H  0.73254343  0.74725658  0.99462151     0.13500
H1805       H  0.75859229  0.75948506  0.05336079     0.11200
H1806       H  0.77931507  0.74134209  0.04271682     0.13200
C1807       C  0.50432521  0.92707591  0.01747131     0.19300
C1808       C  0.51748533  0.92978173  0.01704908    -0.18800
C1809       C  0.52237231  0.94110934  0.02257118    -0.11100
C1810       C  0.51417506  0.95004266  0.02873056     0.21500
C1811       C  0.50102083  0.94732308  0.02918582    -0.20400
C1812       C  0.49612373  0.93602013  0.02361208    -0.11300
C1813       C  0.51901073  0.96190448  0.03534752    -0.15400
C1814       C  0.53029740  0.96755976  0.03245452    -0.29300
C1815       C  0.49969911  0.91449671  0.01214651    -0.03500
C1816       C  0.48746106  0.91218054  0.00879561    -0.40100
H1817       H  0.52405758  0.92301303  0.01254980     0.12700
H1818       H  0.53260329  0.94258178  0.02231430     0.12300
H1819       H  0.49449372  0.95392918  0.03399506     0.11800
H1820       H  0.48598448  0.93419113  0.02452075     0.12000
H1821       H  0.51286386  0.96632887  0.04265354     0.14700
H1822       H  0.53623045  0.96373685  0.02466562     0.13500
H1823       H  0.50674763  0.90690339  0.01077365     0.11200
H1824       H  0.48040553  0.91984619  0.00937096     0.13200
C1825       C  0.93006735  0.00550761  0.99946938     0.19300
C1826       C  0.91948232  0.99824889  0.00375724    -0.18800
C1827       C  0.90865192  0.00433243  0.00899664    -0.11100
C1828       C  0.90823066  0.01787979  0.01025454     0.21500
C1829       C  0.91887904  0.02514777  0.00612637    -0.20400
C1830       C  0.92965019  0.01907094  0.00069659    -0.11300
C1831       C  0.89720955  0.02457692  0.01658543    -0.15400
C1832       C  0.88510550  0.02010551  0.01626603    -0.29300
C1833       C  0.94155524  0.99852539  0.99443224    -0.03500
C1834       C  0.94999497  0.00365430  0.98585070    -0.40100
H1835       H  0.91960904  0.98777892  0.00309625     0.12700
H1836       H  0.90081032  0.99837611  0.01241370     0.12300
H1837       H  0.91888454  0.03558989  0.00716453     0.11800
H1838       H  0.93774122  0.02497247  0.99784007     0.12000
H1839       H  0.89910413  0.03374625  0.02135962     0.14700
H1840       H  0.88287919  0.01153172  0.01062614     0.13500
H1841       H  0.94278247  0.98851154  0.99751650     0.11200
H1842       H  0.94846974  0.01334932  0.98200005     0.13200
C1843       C  0.57935708  0.00550890  0.01859883     0.19300
C1844       C  0.58161247  0.00482327  0.00510687    -0.18800
C1845       C  0.59270412  0.01008796  0.99957345    -0.11100
C1846       C  0.60187591  0.01616643  0.00744696     0.21500
C1847       C  0.59971333  0.01672799  0.02097707    -0.20400
C1848       C  0.58855361  0.01151508  0.02651764    -0.11300
C1849       C  0.61399957  0.02146494  0.00191068    -0.15400
C1850       C  0.61508683  0.02561375  0.98946558    -0.29300
C1851       C  0.56765622  0.99922152  0.02400114    -0.03500
C1852       C  0.56227210  0.00229989  0.03553965    -0.40100
H1853       H  0.57479006  0.00009678  0.99880716     0.12700
H1854       H  0.59418508  0.00904172  0.98917606     0.12300
H1855       H  0.60670592  0.02118293  0.02728611     0.11800
H1856       H  0.58736589  0.01191413  0.03700397     0.12000
H1857       H  0.62212951  0.02233617  0.00839746     0.14700
H1858       H  0.60678727  0.02565781  0.98315910     0.13500
H1859       H  0.56304404  0.99200420  0.01796514     0.11200
H1860       H  0.56624156  0.01001474  0.04139465     0.13200
C1861       C  0.76248805  0.03492328  0.01339536     0.19300
C1862       C  0.75944735  0.03364658  0.00014844    -0.18800
C1863       C  0.74679112  0.03478766  0.99595151    -0.11100
C1864       C  0.73686227  0.03710459  0.00496656     0.21500
C1865       C  0.73980402  0.03777189  0.01828869    -0.20400
C1866       C  0.75249092  0.03675528  0.02248287    -0.11300
C1867       C  0.72338101  0.03866926  0.00071147    -0.15400
C1868       C  0.72037130  0.04423686  0.98923138    -0.29300
C1869       C  0.77616563  0.03442787  0.01732455    -0.03500
C1870       C  0.78058407  0.04084870  0.02773249    -0.40100
H1871       H  0.76691890  0.03202192  0.99298784     0.12700
H1872       H  0.74480079  0.03375904  0.98565035     0.12300
H1873       H  0.73229586  0.03931272  0.02543659     0.11800
H1874       H  0.75440284  0.03732802  0.03283620     0.12000
H1875       H  0.71581636  0.03579562  0.00742138     0.14700
H1876       H  0.72790918  0.04803768  0.98297689     0.13500
H1877       H  0.78288165  0.02952046  0.01093745     0.11200
H1878       H  0.77404282  0.04647027  0.03368062     0.13200
C1879       C  0.75347719  0.84236299  0.25122454     0.19300
C1880       C  0.75829429  0.85260150  0.24357719    -0.18800
C1881       C  0.76287719  0.86391913  0.24941976    -0.11100
C1882       C  0.76288345  0.86519947  0.26310581     0.21500
C1883       C  0.75859994  0.85471799  0.27075915    -0.20400
C1884       C  0.75388696  0.84346728  0.26491548    -0.11300
C1885       C  0.76756117  0.87713273  0.26972528    -0.15400
C1886       C  0.76730090  0.88899136  0.26412603    -0.29300
C1887       C  0.74820069  0.83064883  0.24467885    -0.03500
C1888       C  0.73860968  0.82360472  0.24993572    -0.40100
H1889       H  0.75832116  0.85192584  0.23303446     0.12700
H1890       H  0.76654180  0.87155864  0.24317231     0.12300
H1891       H  0.75874000  0.85530331  0.28130784     0.11800
H1892       H  0.75069102  0.83560171  0.27115801     0.12000
H1893       H  0.77080020  0.87616857  0.27972890     0.14700
H1894       H  0.76339177  0.89018851  0.25441605     0.13500
H1895       H  0.75173735  0.82825433  0.23500528     0.11200
H1896       H  0.73445629  0.82656984  0.25917477     0.13200
C1897       C  0.74746468  0.20263526  0.26292610     0.19300
C1898       C  0.76032965  0.19979813  0.26017853    -0.18800
C1899       C  0.76369766  0.18865351  0.25325011    -0.11100
C1900       C  0.75425649  0.17993692  0.24907624     0.21500
C1901       C  0.74140934  0.18255817  0.25212460    -0.20400
C1902       C  0.73800971  0.19384237  0.25886890    -0.11300
C1903       C  0.75771211  0.16783933  0.24203680    -0.15400
C1904       C  0.76743271  0.16738682  0.23337916    -0.29300
C1905       C  0.74435508  0.21445489  0.27061750    -0.03500
C1906       C  0.73312547  0.22082313  0.26977801    -0.40100
H1907       H  0.76782371  0.20626218  0.26338598     0.12700
H1908       H  0.77371985  0.18672652  0.25142267     0.12300
H1909       H  0.73397420  0.17588536  0.24920980     0.11800
H1910       H  0.72803217  0.19547191  0.26116363     0.12000
H1911       H  0.75190123  0.15926493  0.24372272     0.14700
H1912       H  0.77255472  0.17622947  0.23092930     0.13500
H1913       H  0.75176175  0.21824650  0.27694007     0.11200
H1914       H  0.72594027  0.21760472  0.26291245     0.13200
C1915       C  0.83725775  0.09795095  0.11160455     0.19300
C1916       C  0.82792314  0.10733714  0.11439950    -0.18800
C1917       C  0.82610531  0.11179162  0.12714108    -0.11100
C1918       C  0.83361293  0.10690078  0.13741446     0.21500
C1919       C  0.84323331  0.09784476  0.13454064    -0.20400
C1920       C  0.84507030  0.09341247  0.12179815    -0.11300
C1921       C  0.83073113  0.10969158  0.15134799    -0.15400
C1922       C  0.82352332  0.11967943  0.15551778    -0.29300
C1923       C  0.83745597  0.09210027  0.09837952    -0.03500
C1924       C  0.84703714  0.08472857  0.09363971    -0.40100
H1925       H  0.82167429  0.11089004  0.10676951     0.12700
H1926       H  0.81837891  0.11852236  0.12893581     0.12300
H1927       H  0.84904926  0.09380286  0.14228286     0.11800
H1928       H  0.85216006  0.08596464  0.12018702     0.12000
H1929       H  0.83436955  0.10282638  0.15848931     0.14700
H1930       H  0.82044863  0.12718519  0.14878737     0.13500
H1931       H  0.82901715  0.09361907  0.09243281     0.11200
H1932       H  0.85594929  0.08371402  0.09889972     0.13200
C1933       C  0.78430998  0.01936224  0.26054689     0.19300
C1934       C  0.79483235  0.02774989  0.25988108    -0.18800
C1935       C  0.79365354  0.04007929  0.25434184    -0.11100
C1936       C  0.78182264  0.04438860  0.24947262     0.21500
C1937       C  0.77114171  0.03623316  0.25063636    -0.20400
C1938       C  0.77236958  0.02376849  0.25601602    -0.11300
C1939       C  0.78052432  0.05736074  0.24322559    -0.15400
C1940       C  0.78995431  0.06237735  0.23580605    -0.29300
C1941       C  0.78614675  0.00629595  0.26639927    -0.03500
C1942       C  0.77935878  0.99577245  0.26301260    -0.40100
H1943       H  0.80408611  0.02467756  0.26352210     0.12700
H1944       H  0.80198347  0.04627392  0.25399032     0.12300
H1945       H  0.76187825  0.03942606  0.24715093     0.11800
H1946       H  0.76398163  0.01769901  0.25676573     0.12000
H1947       H  0.77151683  0.06253214  0.24420049     0.14700
H1948       H  0.79850448  0.05666061  0.23398815     0.13500
H1949       H  0.79403452  0.00518188  0.27318812     0.11200
H1950       H  0.77202999  0.99652811  0.25556551     0.13200
C1951       C  0.93813118  0.03138946  0.51402817     0.19300
C1952       C  0.93515566  0.01914674  0.50898205    -0.18800
C1953       C  0.92352655  0.01701509  0.50255996    -0.11100
C1954       C  0.91450039  0.02707071  0.50129163     0.21500
C1955       C  0.91737863  0.03921463  0.50658184    -0.20400
C1956       C  0.92907291  0.04140450  0.51278362    -0.11300
C1957       C  0.90173616  0.02505949  0.49521890    -0.15400
C1958       C  0.89961403  0.01668385  0.48544950    -0.29300
C1959       C  0.95042506  0.03334298  0.52107184    -0.03500
C1960       C  0.95663514  0.04477467  0.52114423    -0.40100
H1961       H  0.94187665  0.01120224  0.50999116     0.12700
H1962       H  0.92148316  0.00743422  0.49892873     0.12300
H1963       H  0.91051914  0.04707095  0.50592183     0.11800
H1964       H  0.93084359  0.05084317  0.51689652     0.12000
H1965       H  0.89390330  0.03114506  0.49857910     0.14700
H1966       H  0.90756384  0.01125624  0.48132113     0.13500
H1967       H  0.95467015  0.02503057  0.52598482     0.11200
H1968       H  0.95293458  0.05282995  0.51542446     0.13200
C1969       C  0.82510487  0.95446466  0.36339170     0.19300
C1970       C  0.83462950  0.96373723  0.36571029    -0.18800
C1971       C  0.83706795  0.96810706  0.37834752    -0.11100
C1972       C  0.82997330  0.96330402  0.38902649     0.21500
C1973       C  0.82067633  0.95377949  0.38677988    -0.20400
C1974       C  0.81828240  0.94934069  0.37412515    -0.11300
C1975       C  0.83118422  0.96887425  0.40233683    -0.15400
C1976       C  0.84182835  0.97475389  0.40667444    -0.29300
C1977       C  0.82170408  0.95160242  0.34960132    -0.03500
C1978       C  0.81440165  0.94160719  0.34570750    -0.40100
H1979       H  0.83994070  0.96796440  0.35762978     0.12700
H1980       H  0.84407294  0.97568486  0.37958842     0.12300
H1981       H  0.81499940  0.94999552  0.39482158     0.11800
H1982       H  0.81069716  0.94238812  0.37279347     0.12000
H1983       H  0.82295608  0.96806695  0.40880890     0.14700
H1984       H  0.85046027  0.97479634  0.40075043     0.13500
H1985       H  0.82519499  0.95838502  0.34226141     0.11200
H1986       H  0.81143906  0.93414762  0.35257675     0.13200
C1987       C  0.57762392  0.04143373  0.49614910     0.19300
C1988       C  0.58067188  0.02846977  0.49892502    -0.18800
C1989       C  0.59249663  0.02514582  0.50432620    -0.11100
C1990       C  0.60167212  0.03472887  0.50688226     0.21500
C1991       C  0.59874322  0.04768693  0.50388218    -0.20400
C1992       C  0.58678728  0.05105003  0.49869123    -0.11300
C1993       C  0.61453749  0.03132239  0.51205325    -0.15400
C1994       C  0.61638870  0.02148193  0.52052897    -0.29300
C1995       C  0.56516956  0.04436920  0.48981228    -0.03500
C1996       C  0.55877484  0.05564001  0.49109518    -0.40100
H1997       H  0.57386959  0.02085408  0.49686050     0.12700
H1998       H  0.59456882  0.01502901  0.50615204     0.12300
H1999       H  0.60572594  0.05522487  0.50557814     0.11800
H2000       H  0.58489547  0.06109388  0.49632830     0.12000
H2001       H  0.62259532  0.03734183  0.50915866     0.14700
H2002       H  0.60821094  0.01614311  0.52430373     0.13500
H2003       H  0.56085237  0.03663613  0.48419175     0.11200
H2004       H  0.56247778  0.06316774  0.49738928     0.13200
C2005       C  0.76961201  0.01563487  0.49463262     0.19300
C2006       C  0.75802381  0.01534886  0.48773896    -0.18800
C2007       C  0.74627376  0.01479633  0.49433911    -0.11100
C2008       C  0.74582303  0.01450811  0.50807097     0.21500
C2009       C  0.75739380  0.01499316  0.51496933    -0.20400
C2010       C  0.76914673  0.01556928  0.50836999    -0.11300
C2011       C  0.73367003  0.01274882  0.51556813    -0.15400
C2012       C  0.72191073  0.01507545  0.51073337    -0.29300
C2013       C  0.78183969  0.01495243  0.48707597    -0.03500
C2014       C  0.79355399  0.01722755  0.49203819    -0.40100
H2015       H  0.75806400  0.01525326  0.47717161     0.12700
H2016       H  0.73765233  0.01411400  0.48859585     0.12300
H2017       H  0.75735709  0.01466586  0.52553464     0.11800
H2018       H  0.77778325  0.01548903  0.51412763     0.12000
H2019       H  0.73451618  0.00945392  0.52560686     0.14700
H2020       H  0.72079413  0.01909903  0.50100695     0.13500
H2021       H  0.78109238  0.01231081  0.47688159     0.11200
H2022       H  0.79462311  0.02054893  0.50197527     0.13200
C2023       C  0.75315185  0.18260025  0.76550682     0.19300
C2024       C  0.75851503  0.19292657  0.77242843    -0.18800
C2025       C  0.76292450  0.20399851  0.76586206    -0.11100
C2026       C  0.76191421  0.20503985  0.75219399     0.21500
C2027       C  0.75624568  0.19486302  0.74531160    -0.20400
C2028       C  0.75197474  0.18372921  0.75185767    -0.11300
C2029       C  0.76622063  0.21677858  0.74490574    -0.15400
C2030       C  0.77599802  0.22422019  0.74888379    -0.29300
C2031       C  0.74839254  0.17106028  0.77283693    -0.03500
C2032       C  0.74785810  0.15916369  0.76758561    -0.40100
H2033       H  0.75933151  0.19240496  0.78295841     0.12700
H2034       H  0.76685598  0.21182587  0.77154797     0.12300
H2035       H  0.75516207  0.19551127  0.73481545     0.11800
H2036       H  0.74749923  0.17617433  0.74622352     0.12000
H2037       H  0.76154215  0.21903474  0.73572146     0.14700
H2038       H  0.78128193  0.22153145  0.75758251     0.13500
H2039       H  0.74566701  0.17234670  0.78299157     0.11200
H2040       H  0.75138830  0.15761300  0.75773638     0.13200
C2041       C  0.67434742  0.09147331  0.89158753     0.19300
C2042       C  0.68384107  0.10085717  0.88937716    -0.18800
C2043       C  0.68735232  0.10451866  0.87670210    -0.11100
C2044       C  0.68139345  0.09886841  0.86586799     0.21500
C2045       C  0.67154220  0.08985501  0.86806519    -0.20400
C2046       C  0.66802375  0.08618363  0.88076563    -0.11300
C2047       C  0.68610472  0.10094315  0.85228043    -0.15400
C2048       C  0.69382814  0.11072924  0.84847884    -0.29300
C2049       C  0.67241861  0.08666845  0.90518937    -0.03500
C2050       C  0.66292841  0.07873845  0.90919119    -0.40100
H2051       H  0.68893499  0.10503960  0.89750577     0.12700
H2052       H  0.69516648  0.11127145  0.87552103     0.12300
H2053       H  0.66684807  0.08528012  0.85989918     0.11800
H2054       H  0.66078578  0.07880171  0.88194634     0.12000
H2055       H  0.68334908  0.09375671  0.84514168     0.14700
H2056       H  0.69607119  0.11855232  0.85508031     0.13500
H2057       H  0.67952900  0.08961116  0.91225621     0.11200
H2058       H  0.65521408  0.07614534  0.90268997     0.13200
C2059       C  0.77107312  0.84898908  0.76504973     0.19300
C2060       C  0.77149772  0.85086818  0.75146286    -0.18800
C2061       C  0.76641823  0.86210174  0.74575865    -0.11100
C2062       C  0.76088510  0.87179655  0.75357199     0.21500
C2063       C  0.76089927  0.87011923  0.76719429    -0.20400
C2064       C  0.76586995  0.85883780  0.77288483    -0.11300
C2065       C  0.75520611  0.88385032  0.74797010    -0.15400
C2066       C  0.75053667  0.88473128  0.73574832    -0.29300
C2067       C  0.77646360  0.83684402  0.77071573    -0.03500
C2068       C  0.77235540  0.83162090  0.78207880    -0.40100
H2069       H  0.77566700  0.84355109  0.74522158     0.12700
H2070       H  0.76701570  0.86319924  0.73526304     0.12300
H2071       H  0.75692006  0.87751888  0.77346565     0.11800
H2072       H  0.76578368  0.85796408  0.78341986     0.12000
H2073       H  0.75417922  0.89206104  0.75444772     0.14700
H2074       H  0.75081930  0.87639401  0.72937820     0.13500
H2075       H  0.78362664  0.83172133  0.76501821     0.11200
H2076       H  0.76462032  0.83619037  0.78744654     0.13200
C2077       C  0.68374076  0.95960886  0.61416760     0.19300
C2078       C  0.69434046  0.95177704  0.61718118    -0.18800
C2079       C  0.69607208  0.94681268  0.62981719    -0.11100
C2080       C  0.68720621  0.94961025  0.63980045     0.21500
C2081       C  0.67648613  0.95722798  0.63672669    -0.20400
C2082       C  0.67473824  0.96216084  0.62409774    -0.11300
C2083       C  0.68931052  0.94585838  0.65371654    -0.15400
C2084       C  0.69742966  0.93651644  0.65774859    -0.29300
C2085       C  0.68299940  0.96569218  0.60091825    -0.03500
C2086       C  0.67234697  0.97110639  0.59589168    -0.40100
H2087       H  0.70149447  0.94973417  0.60978743     0.12700
H2088       H  0.70462657  0.94125842  0.63178090     0.12300
H2089       H  0.66956994  0.95965832  0.64423143     0.11800
H2090       H  0.66658702  0.96837525  0.62238313     0.12000
H2091       H  0.68394919  0.95122055  0.66100324     0.14700
H2092       H  0.70235987  0.93048938  0.65070314     0.13500
H2093       H  0.69168555  0.96570814  0.59506090     0.11200
H2094       H  0.66335533  0.97057730  0.60118295     0.13200
C2095       C  0.72513769  0.00497907  0.75607670     0.19300
C2096       C  0.73579742  0.01315960  0.75478273    -0.18800
C2097       C  0.73540312  0.02583553  0.75959113    -0.11100
C2098       C  0.72435955  0.03047166  0.76595405     0.21500
C2099       C  0.71385790  0.02213576  0.76751383    -0.20400
C2100       C  0.71420765  0.00956796  0.76260158    -0.11300
C2101       C  0.72342400  0.04365542  0.77163402    -0.15400
C2102       C  0.73070019  0.05382870  0.76797992    -0.29300
C2103       C  0.72564403  0.99164438  0.75075128    -0.03500
C2104       C  0.71527573  0.98592672  0.74563664    -0.40100
H2105       H  0.74437921  0.00977401  0.74993315     0.12700
H2106       H  0.74382698  0.03183611  0.75851379     0.12300
H2107       H  0.70531803  0.02536890  0.77253834     0.11800
H2108       H  0.70596302  0.00338480  0.76411330     0.12000
H2109       H  0.71594485  0.04511600  0.77883105     0.14700
H2110       H  0.73776821  0.05285360  0.76028618     0.13500
H2111       H  0.73484239  0.98678353  0.75026614     0.11200
H2112       H  0.70635285  0.99125304  0.74494398     0.13200
C2113       C  0.24587960  0.28079798  0.32677121     0.19300
C2114       C  0.24217475  0.28819025  0.33760080    -0.18800
C2115       C  0.23603720  0.28236768  0.34831307    -0.11100
C2116       C  0.23326103  0.26904041  0.34827301     0.21500
C2117       C  0.23648929  0.26176218  0.33721789    -0.20400
C2118       C  0.24282146  0.26753239  0.32660984    -0.11300
C2119       C  0.22683174  0.26251669  0.35949572    -0.15400
C2120       C  0.22894564  0.26590058  0.37195388    -0.29300
C2121       C  0.25289641  0.28714880  0.31579839    -0.03500
C2122       C  0.26200155  0.28095001  0.30892066    -0.40100
H2123       H  0.24425811  0.29845718  0.33787798     0.12700
H2124       H  0.23334915  0.28832244  0.35653574     0.12300
H2125       H  0.23428760  0.25152070  0.33687927     0.11800
H2126       H  0.24520059  0.26162860  0.31825348     0.12000
H2127       H  0.22096509  0.25409011  0.35749743     0.14700
H2128       H  0.23569924  0.27357746  0.37408424     0.13500
H2129       H  0.25120362  0.29738287  0.31398202     0.11200
H2130       H  0.26439889  0.27100914  0.31141878     0.13200
C2131       C  0.25755271  0.27739460  0.66275618     0.19300
C2132       C  0.24449845  0.27695429  0.66601568    -0.18800
C2133       C  0.23995934  0.28248569  0.67759119    -0.11100
C2134       C  0.24842097  0.28864369  0.68621204     0.21500
C2135       C  0.26142105  0.28935485  0.68280200    -0.20400
C2136       C  0.26596587  0.28380284  0.67124351    -0.11300
C2137       C  0.24402928  0.29486179  0.69854369    -0.15400
C2138       C  0.23311733  0.29166354  0.70482481    -0.29300
C2139       C  0.26188686  0.27145630  0.65025753    -0.03500
C2140       C  0.27410495  0.26812415  0.64771567    -0.40100
H2141       H  0.23775734  0.27229669  0.65956457     0.12700
H2142       H  0.22980044  0.28211788  0.67956897     0.12300
H2143       H  0.26811979  0.29423925  0.68912975     0.11800
H2144       H  0.27601198  0.28481069  0.66894176     0.12000
H2145       H  0.25023227  0.30213434  0.70279117     0.14700
H2146       H  0.22708608  0.28400420  0.70108900     0.13500
H2147       H  0.25461458  0.26941613  0.64302770     0.11200
H2148       H  0.28143240  0.26949221  0.65502289     0.13200
C2149       C  0.24080686  0.23277735  0.49827416     0.19300
C2150       C  0.23417929  0.23209172  0.51021204    -0.18800
C2151       C  0.24080767  0.23201400  0.52203790    -0.11100
C2152       C  0.25424960  0.23252071  0.52212322     0.21500
C2153       C  0.26087610  0.23283857  0.51017877    -0.20400
C2154       C  0.25425476  0.23301646  0.49837139    -0.11300
C2155       C  0.26173924  0.23234671  0.53438265    -0.15400
C2156       C  0.25722954  0.23664671  0.54589983    -0.29300
C2157       C  0.23343155  0.23262200  0.48593341    -0.03500
C2158       C  0.23783331  0.23768624  0.47464061    -0.40100
H2159       H  0.22382937  0.23164774  0.51038464     0.12700
H2160       H  0.23538061  0.23131246  0.53103649     0.12300
H2161       H  0.27123694  0.23300469  0.50998272     0.11800
H2162       H  0.25971986  0.23306248  0.48937171     0.12000
H2163       H  0.27161118  0.22914694  0.53366592     0.14700
H2164       H  0.24761020  0.24054401  0.54664451     0.13500
H2165       H  0.22386453  0.22855206  0.48630585     0.11200
H2166       H  0.24699485  0.24260855  0.47430913     0.13200
C2167       C  0.50124505  0.45662231  0.50658061     0.19300
C2168       C  0.50546027  0.45432589  0.51938575    -0.18800
C2169       C  0.51169200  0.44273465  0.52268065    -0.11100
C2170       C  0.51365626  0.43307060  0.51323878     0.21500
C2171       C  0.50924073  0.43529079  0.50049785    -0.20400
C2172       C  0.50319834  0.44695012  0.49715886    -0.11300
C2173       C  0.51964787  0.42034835  0.51647707    -0.15400
C2174       C  0.52838714  0.41875371  0.52596873    -0.29300
C2175       C  0.49417640  0.46879787  0.50347625    -0.03500
C2176       C  0.49457873  0.47449333  0.49160958    -0.40100
H2177       H  0.50389964  0.46152569  0.52687761     0.12700
H2178       H  0.51461912  0.44123377  0.53269128     0.12300
H2179       H  0.51045086  0.42794536  0.49308396     0.11800
H2180       H  0.49973586  0.44820176  0.48729520     0.12000
H2181       H  0.51711405  0.41211551  0.51047013     0.14700
H2182       H  0.53167868  0.42708279  0.53141865     0.13500
H2183       H  0.48872024  0.47333878  0.51126674     0.11200
H2184       H  0.50078189  0.47053313  0.48408662     0.13200
C2185       C  0.51465569  0.10215413  0.49699844     0.19300
C2186       C  0.52052414  0.11357511  0.50127728    -0.18800
C2187       C  0.51319384  0.12433249  0.50490786    -0.11100
C2188       C  0.49974150  0.12389917  0.50441560     0.21500
C2189       C  0.49386217  0.11239669  0.50036639    -0.20400
C2190       C  0.50120028  0.10165809  0.49665429    -0.11300
C2191       C  0.49156002  0.13498476  0.50860745    -0.15400
C2192       C  0.49559745  0.14736425  0.50856001    -0.29300
C2193       C  0.52287451  0.09086023  0.49349690    -0.03500
C2194       C  0.51916179  0.08135074  0.48540328    -0.40100
H2195       H  0.53084738  0.11417551  0.50183496     0.12700
H2196       H  0.51812949  0.13282042  0.50838978     0.12300
H2197       H  0.48353090  0.11170415  0.50009405     0.11800
H2198       H  0.49627219  0.09292461  0.49382715     0.12000
H2199       H  0.48177709  0.13287850  0.51150740     0.14700
H2200       H  0.50509074  0.14971448  0.50496220     0.13500
H2201       H  0.53254018  0.09066296  0.49732953     0.11200
H2202       H  0.50983037  0.08179490  0.48085316     0.13200
C2203       C  0.36805632  0.21051668  0.57733588     0.19300
C2204       C  0.37064956  0.20333054  0.56601509    -0.18800
C2205       C  0.38319312  0.20012892  0.56252734    -0.11100
C2206       C  0.39347389  0.20403656  0.57033779     0.21500
C2207       C  0.39092262  0.21111461  0.58170756    -0.20400
C2208       C  0.37837379  0.21428171  0.58523461    -0.11300
C2209       C  0.40697666  0.20199322  0.56634116    -0.15400
C2210       C  0.41094155  0.19259133  0.55820050    -0.29300
C2211       C  0.35454546  0.21429507  0.58001456    -0.03500
C2212       C  0.35048938  0.22102124  0.59049001    -0.40100
H2213       H  0.36294154  0.20039774  0.55966281     0.12700
H2214       H  0.38479566  0.19501824  0.55347715     0.12300
H2215       H  0.39870427  0.21436932  0.58780398     0.11800
H2216       H  0.37696948  0.21989588  0.59398198     0.12000
H2217       H  0.41396255  0.20865517  0.57029309     0.14700
H2218       H  0.40435516  0.18522041  0.55488542     0.13500
H2219       H  0.34759585  0.21156727  0.57270481     0.11200
H2220       H  0.35702724  0.22374622  0.59815341     0.13200
C2221       C  0.51336870  0.29478111  0.52099786     0.19300
C2222       C  0.50010974  0.29278204  0.52147236    -0.18800
C2223       C  0.49509328  0.28024850  0.52101001    -0.11100
C2224       C  0.50328343  0.26947419  0.51996706     0.21500
C2225       C  0.51649226  0.27152990  0.51883609    -0.20400
C2226       C  0.52150632  0.28403995  0.51937958    -0.11300
C2227       C  0.49843689  0.25597656  0.52007342    -0.15400
C2228       C  0.48776020  0.25250289  0.52654750    -0.29300
C2229       C  0.51844213  0.30811747  0.52240722    -0.03500
C2230       C  0.52976610  0.31040349  0.52806222    -0.40100
H2231       H  0.49364567  0.30090711  0.52249831     0.12700
H2232       H  0.48481289  0.27905205  0.52142965     0.12300
H2233       H  0.52296657  0.26341868  0.51780196     0.11800
H2234       H  0.53175870  0.28525041  0.51849700     0.12000
H2235       H  0.50430486  0.24859915  0.51553605     0.14700
H2236       H  0.48227056  0.25968249  0.53182886     0.13500
H2237       H  0.51233240  0.31619475  0.51971719     0.11200
H2238       H  0.53544595  0.30237533  0.53171101     0.13200
C2239       C  0.00778303  0.45153042  0.52564470     0.19300
C2240       C  0.99464238  0.45004456  0.52330025    -0.18800
C2241       C  0.98982581  0.43859117  0.51795644    -0.11100
C2242       C  0.99804144  0.42820259  0.51496222     0.21500
C2243       C  0.01117555  0.42960135  0.51754237    -0.20400
C2244       C  0.01602343  0.44115719  0.52271274    -0.11300
C2245       C  0.99318132  0.41562267  0.50975338    -0.15400
C2246       C  0.98219345  0.41447475  0.50296968    -0.29300
C2247       C  0.01237071  0.46372132  0.53183459    -0.03500
C2248       C  0.02403798  0.46892489  0.52967824    -0.40100
H2249       H  0.98805395  0.45779078  0.52563936     0.12700
H2250       H  0.97961007  0.43782028  0.51653682     0.12300
H2251       H  0.01771391  0.42171486  0.51555030     0.11800
H2252       H  0.02615911  0.44181669  0.52472516     0.12000
H2253       H  0.99906232  0.40708928  0.51127326     0.14700
H2254       H  0.97662060  0.42304162  0.50068982     0.13500
H2255       H  0.00559798  0.46895063  0.53790581     0.11200
H2256       H  0.03056913  0.46432217  0.52287113     0.13200
C2257       C  0.01130881  0.11614762  0.51053257     0.19300
C2258       C  0.01772240  0.10557162  0.51619053    -0.18800
C2259       C  0.01102929  0.09439876  0.52003273    -0.11100
C2260       C  0.99772048  0.09349384  0.51814350     0.21500
C2261       C  0.99135756  0.10402193  0.51231897    -0.20400
C2262       C  0.99802393  0.11522472  0.50860746    -0.11300
C2263       C  0.99021212  0.08158954  0.52142726    -0.15400
C2264       C  0.99401802  0.07234520  0.52994841    -0.29300
C2265       C  0.01876591  0.12775866  0.50624807    -0.03500
C2266       C  0.01377536  0.13978782  0.50605554    -0.40100
H2267       H  0.02797050  0.10595337  0.51764087     0.12700
H2268       H  0.01639200  0.08641953  0.52413977     0.12300
H2269       H  0.98116132  0.10355679  0.51055944     0.11800
H2270       H  0.99279219  0.12299885  0.50392967     0.12000
H2271       H  0.98095258  0.08056641  0.51678805     0.14700
H2272       H  0.00291034  0.07343611  0.53521586     0.13500
H2273       H  0.02878639  0.12643055  0.50373733     0.11200
H2274       H  0.00406735  0.14131650  0.50952879     0.13200
C2275       C  0.13741349  0.19250490  0.43293706     0.19300
C2276       C  0.12685522  0.20029858  0.42962792    -0.18800
C2277       C  0.11462553  0.19730892  0.43440045    -0.11100
C2278       C  0.11268599  0.18651086  0.44265294     0.21500
C2279       C  0.12307206  0.17829208  0.44523196    -0.20400
C2280       C  0.13531717  0.18133339  0.44054509    -0.11300
C2281       C  0.10019266  0.18398769  0.44929434    -0.15400
C2282       C  0.09233040  0.19368207  0.45283500    -0.29300
C2283       C  0.15081024  0.19653978  0.43007194    -0.03500
C2284       C  0.15422953  0.20495139  0.42056036    -0.40100
H2285       H  0.12805985  0.20906150  0.42392415     0.12700
H2286       H  0.10676751  0.20364637  0.43183946     0.12300
H2287       H  0.12183684  0.16984826  0.45142818     0.11800
H2288       H  0.14327323  0.17515250  0.44324510     0.12000
H2289       H  0.09803367  0.17416814  0.45244112     0.14700
H2290       H  0.09492981  0.20359877  0.45048150     0.13500
H2291       H  0.15817434  0.19269676  0.43647386     0.11200
H2292       H  0.14729214  0.20820851  0.41340686     0.13200
C2293       C  0.99361839  0.28917799  0.50657288     0.19300
C2294       C  0.00649618  0.28657715  0.50929441    -0.18800
C2295       C  0.01096806  0.27381675  0.50986741    -0.11100
C2296       C  0.00260083  0.26335692  0.50778751     0.21500
C2297       C  0.98953713  0.26593795  0.50607752    -0.20400
C2298       C  0.98507545  0.27871283  0.50542760    -0.11300
C2299       C  0.00729328  0.24976445  0.50685596    -0.15400
C2300       C  0.01901484  0.24697923  0.50216940    -0.29300
C2301       C  0.98951613  0.30283632  0.50447941    -0.03500
C2302       C  0.98028089  0.30596994  0.49593907    -0.40100
H2303       H  0.01321399  0.29444658  0.51049776     0.12700
H2304       H  0.02101229  0.27219925  0.51178296     0.12300
H2305       H  0.98284249  0.25806759  0.50475164     0.11800
H2306       H  0.97497424  0.28036012  0.50385554     0.12000
H2307       H  0.00064768  0.24194987  0.50895324     0.14700
H2308       H  0.02532827  0.25478494  0.49917886     0.13500
H2309       H  0.99496178  0.31047126  0.50909685     0.11200
H2310       H  0.97542682  0.29836471  0.49065122     0.13200
C2311       C  0.74675105  0.26182937  0.32750049     0.19300
C2312       C  0.74067124  0.26691114  0.33860708    -0.18800
C2313       C  0.74778077  0.27109973  0.34932537    -0.11100
C2314       C  0.76122784  0.27038264  0.34917238     0.21500
C2315       C  0.76732916  0.26547226  0.33799314    -0.20400
C2316       C  0.76020367  0.26118761  0.32729651    -0.11300
C2317       C  0.76917715  0.27518317  0.36019974    -0.15400
C2318       C  0.76491766  0.27580374  0.37262004    -0.24500
C2319       C  0.73872382  0.25792221  0.31618451    -0.03500
C2320       C  0.74250666  0.24958863  0.30683506    -0.40100
H2321       H  0.73034170  0.26770243  0.33897505     0.12700
H2322       H  0.74269425  0.27519685  0.35754687     0.12300
H2323       H  0.77766765  0.26497595  0.33752133     0.11800
H2324       H  0.76530172  0.25769928  0.31880086     0.12000
H2325       H  0.77900660  0.27787343  0.35806226     0.14700
H2326       H  0.75540182  0.27233533  0.37504973     0.13500
H2327       H  0.72905521  0.26178371  0.31581208     0.11200
H2328       H  0.75184444  0.24502730  0.30737653     0.13200
C2329       C  0.89127816  0.34633392  0.43710005     0.19300
C2330       C  0.88957112  0.33733862  0.42700607    -0.18800
C2331       C  0.87730724  0.33326641  0.42340354    -0.11100
C2332       C  0.86644432  0.33805163  0.42993389     0.21500
C2333       C  0.86814209  0.34727682  0.43980291    -0.20400
C2334       C  0.88038033  0.35140547  0.44334311    -0.11300
C2335       C  0.85340810  0.33262278  0.42797728    -0.15400
C2336       C  0.84958366  0.32574099  0.41753507    -0.29300
C2337       C  0.90450439  0.34912697  0.44167299    -0.03500
C2338       C  0.90783626  0.35949506  0.44885963    -0.40100
H2339       H  0.89779660  0.33315703  0.42212669     0.12700
H2340       H  0.87645306  0.32593569  0.41596652     0.12300
H2341       H  0.85996052  0.35100448  0.44511864     0.11800
H2342       H  0.88123684  0.35808191  0.45137917     0.12000
H2343       H  0.84660971  0.33418411  0.43586534     0.14700
H2344       H  0.85569999  0.32477393  0.40901123     0.13500
H2345       H  0.91184512  0.34215180  0.43905458     0.11200
H2346       H  0.90094111  0.36708401  0.45087645     0.13200
C2347       C  0.76684265  0.27122776  0.69465470     0.19300
C2348       C  0.77347429  0.27734001  0.68437484    -0.18800
C2349       C  0.76696998  0.28200650  0.67338229    -0.11100
C2350       C  0.75360244  0.28074358  0.67245359     0.21500
C2351       C  0.74692392  0.27494596  0.68288607    -0.20400
C2352       C  0.75343904  0.27019295  0.69383904    -0.11300
C2353       C  0.74627778  0.28565989  0.66098035    -0.15400
C2354       C  0.75134757  0.28685778  0.64890472    -0.29300
C2355       C  0.77420561  0.26641176  0.70615649    -0.03500
C2356       C  0.77005401  0.25688559  0.71416625    -0.40100
H2357       H  0.78375985  0.27846002  0.68481943     0.12700
H2358       H  0.77243356  0.28679150  0.66576910     0.12300
H2359       H  0.73661501  0.27402694  0.68253141     0.11800
H2360       H  0.74789550  0.26594647  0.70171231     0.12000
H2361       H  0.73618314  0.28769165  0.66241144     0.14700
H2362       H  0.76118228  0.28401308  0.64712302     0.13500
H2363       H  0.78366806  0.27043958  0.70769498     0.11200
H2364       H  0.76097319  0.25219775  0.71231040     0.13200
C2365       C  0.62204477  0.34916459  0.58533707     0.19300
C2366       C  0.62516379  0.33718100  0.59108527    -0.18800
C2367       C  0.63784212  0.33406660  0.59406077    -0.11100
C2368       C  0.64771523  0.34289156  0.59128189     0.21500
C2369       C  0.64461836  0.35494284  0.58575299    -0.20400
C2370       C  0.63193197  0.35811013  0.58286398    -0.11300
C2371       C  0.66137563  0.33932821  0.59274791    -0.15400
C2372       C  0.66571342  0.33089389  0.60176371    -0.29300
C2373       C  0.60862486  0.35133397  0.58103197    -0.03500
C2374       C  0.60391610  0.36269126  0.57658399    -0.40100
H2375       H  0.61779311  0.33002754  0.59294706     0.12700
H2376       H  0.63993343  0.32454540  0.59797663     0.12300
H2377       H  0.65209559  0.36183760  0.58338958     0.11800
H2378       H  0.63009575  0.36733918  0.57823492     0.12000
H2379       H  0.66815071  0.34391396  0.58610323     0.14700
H2380       H  0.65930379  0.32700321  0.60917738     0.13500
H2381       H  0.60241256  0.34292668  0.58118142     0.11200
H2382       H  0.60957427  0.37145237  0.57689528     0.13200
C2383       C  0.76066377  0.28168943  0.49707503     0.19300
C2384       C  0.74803890  0.28525805  0.50004824    -0.18800
C2385       C  0.74402270  0.28649744  0.51303619    -0.11100
C2386       C  0.75257424  0.28413989  0.52337604     0.21500
C2387       C  0.76496402  0.27977310  0.52038524    -0.20400
C2388       C  0.76899542  0.27859388  0.50738756    -0.11300
C2389       C  0.74901304  0.28626959  0.53732702    -0.15400
C2390       C  0.73972444  0.29454017  0.54099562    -0.29300
C2391       C  0.76487858  0.28162645  0.48316760    -0.03500
C2392       C  0.77693864  0.28451276  0.47956497    -0.40100
H2393       H  0.74136410  0.28744448  0.49230086     0.12700
H2394       H  0.73421295  0.28932341  0.51487483     0.12300
H2395       H  0.77165164  0.27759637  0.52812152     0.11800
H2396       H  0.77866241  0.27532053  0.50546128     0.12000
H2397       H  0.75470864  0.28151179  0.54476508     0.14700
H2398       H  0.73435825  0.29982651  0.53368298     0.13500
H2399       H  0.75765078  0.28042970  0.47571628     0.11200
H2400       H  0.78399639  0.28667589  0.48695087     0.13200
C2401       C  0.50667605  0.02152888  0.41753326     0.19300
C2402       C  0.51938598  0.02528528  0.41964873    -0.18800
C2403       C  0.52270505  0.03237926  0.43071678    -0.11100
C2404       C  0.51330051  0.03604670  0.43986360     0.21500
C2405       C  0.50054626  0.03247029  0.43763625    -0.20400
C2406       C  0.49725711  0.02518728  0.42665465    -0.11300
C2407       C  0.51642049  0.04413358  0.45140720    -0.15400
C2408       C  0.52789684  0.04377936  0.45730819    -0.29300
C2409       C  0.50343635  0.01466161  0.40527386    -0.03500
C2410       C  0.49375367  0.00614157  0.40426466    -0.40100
H2411       H  0.52678654  0.02277456  0.41264915     0.12700
H2412       H  0.53256201  0.03529808  0.43185937     0.12300
H2413       H  0.49308768  0.03534697  0.44441594     0.11800
H2414       H  0.48731562  0.02278486  0.42512117     0.12000
H2415       H  0.50892813  0.05029590  0.45535898     0.14700
H2416       H  0.53513782  0.03700749  0.45396885     0.13500
H2417       H  0.50956060  0.01642793  0.39683711     0.11200
H2418       H  0.48819947  0.00346294  0.41285950     0.13200
C2419       C  0.51299439  0.02948693  0.10647339     0.19300
C2420       C  0.51146065  0.01617351  0.10430362    -0.18800
C2421       C  0.51677385  0.01030347  0.09326168    -0.11100
C2422       C  0.52386048  0.01765090  0.08415606     0.21500
C2423       C  0.52547983  0.03095802  0.08639612    -0.20400
C2424       C  0.52007354  0.03684706  0.09739166    -0.11300
C2425       C  0.53026713  0.01175716  0.07261015    -0.15400
C2426       C  0.52690639  0.00033879  0.06730686    -0.29300
C2427       C  0.50784891  0.03508710  0.11875475    -0.03500
C2428       C  0.50476705  0.04766241  0.12026607    -0.40100
H2429       H  0.50621512  0.01025194  0.11125856     0.12700
H2430       H  0.51559975  0.99997472  0.09214757     0.12300
H2431       H  0.53104879  0.03681602  0.07965013     0.11800
H2432       H  0.52179306  0.04704947  0.09893324     0.12000
H2433       H  0.53794128  0.01730039  0.06807107     0.14700
H2434       H  0.51884585  0.99491898  0.07118688     0.13500
H2435       H  0.50621248  0.02839969  0.12680422     0.11200
H2436       H  0.50542809  0.05434765  0.11208007     0.13200
C2437       C  0.48790481  0.02908705  0.24959759     0.19300
C2438       C  0.48647309  0.03527622  0.26168139    -0.18800
C2439       C  0.48682118  0.02820876  0.27335438    -0.11100
C2440       C  0.48859917  0.01471230  0.27321109     0.21500
C2441       C  0.49006131  0.00850402  0.26114117    -0.20400
C2442       C  0.48975973  0.01558537  0.24944854    -0.11300
C2443       C  0.48800022  0.00672420  0.28532869    -0.15400
C2444       C  0.49048760  0.01137345  0.29729916    -0.29300
C2445       C  0.48660349  0.03701287  0.23749029    -0.03500
C2446       C  0.49041232  0.03318682  0.22554320    -0.40100
H2447       H  0.48486942  0.04562530  0.26209213     0.12700
H2448       H  0.48523830  0.03332481  0.28240289     0.12300
H2449       H  0.49126344  0.99809790  0.26075047     0.11800
H2450       H  0.49057229  0.01034670  0.24037908     0.12000
H2451       H  0.48546321  0.99659551  0.28428862     0.14700
H2452       H  0.49384757  0.02122983  0.29845312     0.13500
H2453       H  0.48244295  0.04657487  0.23857515     0.11200
H2454       H  0.49519234  0.02396916  0.22423088     0.13200
C2455       C  0.68484043  0.26274281  0.26726618     0.19300
C2456       C  0.68234027  0.26700443  0.25448880    -0.18800
C2457       C  0.67094312  0.27347893  0.25150269    -0.11100
C2458       C  0.66165378  0.27563776  0.26123108     0.21500
C2459       C  0.66405672  0.27120674  0.27398368    -0.20400
C2460       C  0.67557783  0.26493782  0.27702842    -0.11300
C2461       C  0.64911158  0.28175242  0.25815238    -0.15400
C2462       C  0.64765770  0.29093281  0.24886767    -0.29300
C2463       C  0.69687194  0.25546393  0.26987429    -0.03500
C2464       C  0.70304285  0.25571155  0.28138051    -0.40100
H2465       H  0.68924115  0.26528847  0.24675790     0.12700
H2466       H  0.66926639  0.27642785  0.24150544     0.12300
H2467       H  0.65697142  0.27258330  0.28161758     0.11800
H2468       H  0.67704323  0.26149315  0.28690497     0.12000
H2469       H  0.64088915  0.27888935  0.26403312     0.14700
H2470       H  0.65598637  0.29465596  0.24369316     0.13500
H2471       H  0.70115643  0.25023997  0.26176962     0.11200
H2472       H  0.69941661  0.26170873  0.28925108     0.13200
C2473       C  0.31964740  0.27722636  0.26732364     0.19300
C2474       C  0.32972083  0.28432926  0.26167125    -0.18800
C2475       C  0.34098084  0.27815471  0.25760454    -0.11100
C2476       C  0.34240339  0.26465943  0.25905288     0.21500
C2477       C  0.33217995  0.25751584  0.26432425    -0.20400
C2478       C  0.32095101  0.26368973  0.26844273    -0.11300
C2479       C  0.35423978  0.25766267  0.25496965    -0.15400
C2480       C  0.36583464  0.26329505  0.25443641    -0.29300
C2481       C  0.30782790  0.28419728  0.27153307    -0.03500
C2482       C  0.29954266  0.27944542  0.28047436    -0.40100
H2483       H  0.32890155  0.29472102  0.26045320     0.12700
H2484       H  0.34843632  0.28397696  0.25315936     0.12300
H2485       H  0.33291553  0.24709860  0.26534876     0.11800
H2486       H  0.31327305  0.25775585  0.27227256     0.12000
H2487       H  0.35346585  0.24737272  0.25303111     0.14700
H2488       H  0.36687171  0.27338216  0.25710956     0.13500
H2489       H  0.30612152  0.29376375  0.26742135     0.11200
H2490       H  0.30145175  0.27023053  0.28520833     0.13200
C2491       C  0.44351297  0.13907147  0.19312158     0.19300
C2492       C  0.43421761  0.14031802  0.20299941    -0.18800
C2493       C  0.43004164  0.15252651  0.20707433    -0.11100
C2494       C  0.43512957  0.16381663  0.20134965     0.21500
C2495       C  0.44418632  0.16257799  0.19125249    -0.20400
C2496       C  0.44832728  0.15037304  0.18714003    -0.11300
C2497       C  0.43231809  0.17695934  0.20648560    -0.15400
C2498       C  0.42197599  0.18007999  0.21374735    -0.29300
C2499       C  0.44869237  0.12593679  0.19028820    -0.03500
C2500       C  0.45585677  0.12289864  0.17975636    -0.40100
H2501       H  0.43042658  0.13179684  0.20786902     0.12700
H2502       H  0.42329287  0.15304103  0.21508703     0.12300
H2503       H  0.44836133  0.17112067  0.18676408     0.11800
H2504       H  0.45567852  0.14993419  0.17970266     0.12000
H2505       H  0.43926262  0.18445581  0.20418688     0.14700
H2506       H  0.41437503  0.17311700  0.21540332     0.13500
H2507       H  0.44655551  0.11839581  0.19739887     0.11200
H2508       H  0.45751921  0.12993922  0.17204375     0.13200
C2509       C  0.51808429  0.28273250  0.24188695     0.19300
C2510       C  0.50670530  0.28988280  0.24306571    -0.18800
C2511       C  0.49479848  0.28373071  0.24280004    -0.11100
C2512       C  0.49401197  0.27022216  0.24132047     0.21500
C2513       C  0.50539694  0.26308926  0.24008110    -0.20400
C2514       C  0.51729667  0.26923839  0.24037308    -0.11300
C2515       C  0.48163237  0.26318706  0.24043600    -0.15400
C2516       C  0.47024482  0.26804459  0.24423654    -0.29300
C2517       C  0.53044778  0.28982879  0.24132662    -0.03500
C2518       C  0.54196723  0.28433771  0.24341843    -0.40100
H2519       H  0.50702476  0.30030563  0.24403809     0.12700
H2520       H  0.48630613  0.28968489  0.24341692     0.12300
H2521       H  0.50508608  0.25271049  0.23875324     0.11800
H2522       H  0.52578549  0.26339302  0.23901142     0.12000
H2523       H  0.48203390  0.25340936  0.23668436     0.14700
H2524       H  0.46957993  0.27760643  0.24844621     0.13500
H2525       H  0.52996394  0.30010804  0.23914704     0.11200
H2526       H  0.54269274  0.27428579  0.24642201     0.13200
C2527       C  0.34217383  0.78345479  0.26268732     0.19300
C2528       C  0.33321923  0.79046582  0.25528383    -0.18800
C2529       C  0.32237376  0.78437735  0.25015358    -0.11100
C2530       C  0.32017884  0.77109256  0.25241313     0.21500
C2531       C  0.32897599  0.76417535  0.26008039    -0.20400
C2532       C  0.33984094  0.77022990  0.26512907    -0.11300
C2533       C  0.30865347  0.76418678  0.24744912    -0.15400
C2534       C  0.30172499  0.76815578  0.23708872    -0.29300
C2535       C  0.35359017  0.79027715  0.26804433    -0.03500
C2536       C  0.36460833  0.78414059  0.27093681    -0.40100
H2537       H  0.33464285  0.80069658  0.25342127     0.12700
H2538       H  0.31564621  0.79018508  0.24466817     0.12300
H2539       H  0.32744143  0.75399934  0.26218042     0.11800
H2540       H  0.34622038  0.76455143  0.27115884     0.12000
H2541       H  0.30602797  0.75518693  0.25231698     0.14700
H2542       H  0.30452688  0.77677539  0.23169209     0.13500
H2543       H  0.35307465  0.80071447  0.26910836     0.11200
H2544       H  0.36553101  0.77386623  0.26903590     0.13200
C2545       C  0.43938777  0.90906605  0.33350340     0.19300
C2546       C  0.43191524  0.90674341  0.32239838    -0.18800
C2547       C  0.42796142  0.89420035  0.31928127    -0.11100
C2548       C  0.43151399  0.88362312  0.32717851     0.21500
C2549       C  0.43883354  0.88594860  0.33838897    -0.20400
C2550       C  0.44268023  0.89852225  0.34158753    -0.11300
C2551       C  0.42892145  0.87001427  0.32329513    -0.15400
C2552       C  0.41912786  0.86637505  0.31562277    -0.29300
C2553       C  0.44452604  0.92234906  0.33552671    -0.03500
C2554       C  0.44904703  0.92685193  0.34694475    -0.40100
H2555       H  0.42937862  0.91465149  0.31589961     0.12700
H2556       H  0.42264462  0.89277700  0.31038105     0.12300
H2557       H  0.44184753  0.87794537  0.34454772     0.11800
H2558       H  0.44867890  0.89982084  0.35003911     0.12000
H2559       H  0.43545502  0.86265649  0.32693438     0.14700
H2560       H  0.41189932  0.87334892  0.31270433     0.13500
H2561       H  0.44458155  0.92873586  0.32706466     0.11200
H2562       H  0.44833547  0.92103303  0.35577093     0.13200
C2563       C  0.68562687  0.77649383  0.25194350     0.19300
C2564       C  0.68276752  0.76320569  0.25203447    -0.18800
C2565       C  0.67099298  0.75865850  0.25682528    -0.11100
C2566       C  0.66169351  0.76735304  0.26154761     0.21500
C2567       C  0.66451559  0.78065259  0.26133311    -0.20400
C2568       C  0.67632531  0.78518522  0.25665236    -0.11300
C2569       C  0.64873789  0.76306055  0.26607163    -0.15400
C2570       C  0.64602137  0.75097462  0.27033997    -0.29300
C2571       C  0.69806423  0.78098197  0.24623920    -0.03500
C2572       C  0.70377695  0.79217398  0.24959169    -0.40100
H2573       H  0.68966002  0.75629969  0.24830994     0.12700
H2574       H  0.66911759  0.74838169  0.25644345     0.12300
H2575       H  0.65749641  0.78760325  0.26472251     0.11800
H2576       H  0.67795698  0.79551909  0.25639467     0.12000
H2577       H  0.64121047  0.77030260  0.26619557     0.14700
H2578       H  0.65356388  0.74380807  0.27106880     0.13500
H2579       H  0.70283285  0.77467025  0.23930896     0.11200
H2580       H  0.69953221  0.79814995  0.25712736     0.13200
C2581       C  0.51654014  0.76682941  0.27964863     0.19300
C2582       C  0.50535558  0.75960260  0.27777837    -0.18800
C2583       C  0.49332547  0.76542587  0.27866530    -0.11100
C2584       C  0.49219758  0.77869135  0.28154210     0.21500
C2585       C  0.50343032  0.78597278  0.28314026    -0.20400
C2586       C  0.51547642  0.78013203  0.28222579    -0.11300
C2587       C  0.47965691  0.78523016  0.28369719    -0.15400
C2588       C  0.46815298  0.77960704  0.28204552    -0.29300
C2589       C  0.52893818  0.75984309  0.28007089    -0.03500
C2590       C  0.54047728  0.76545107  0.27851629    -0.40100
H2591       H  0.50591537  0.74931591  0.27588574     0.12700
H2592       H  0.48506124  0.75931475  0.27743489     0.12300
H2593       H  0.50288770  0.79617417  0.28543887     0.11800
H2594       H  0.52385281  0.78597046  0.28405830     0.12000
H2595       H  0.47997871  0.79516437  0.28702617     0.14700
H2596       H  0.46735088  0.76987410  0.27833513     0.13500
H2597       H  0.52846708  0.74947870  0.28179700     0.11200
H2598       H  0.54127424  0.77558348  0.27582307     0.13200
C2599       C  0.48547373  0.52920116  0.07458675     0.19300
C2600       C  0.48350661  0.51625183  0.07836835    -0.18800
C2601       C  0.48846132  0.51143058  0.09010879    -0.11100
C2602       C  0.49543413  0.51951456  0.09846293     0.21500
C2603       C  0.49715515  0.53254834  0.09485304    -0.20400
C2604       C  0.49230747  0.53734874  0.08302622    -0.11300
C2605       C  0.50044233  0.51482995  0.11126344    -0.15400
C2606       C  0.50377712  0.50241706  0.11361772    -0.29300
C2607       C  0.47982034  0.53382393  0.06203635    -0.03500
C2608       C  0.48381728  0.54437647  0.05532554    -0.40100
H2609       H  0.47810166  0.50980310  0.07218921     0.12700
H2610       H  0.48654957  0.50145693  0.09273723     0.12300
H2611       H  0.50229605  0.53904733  0.10121213     0.11800
H2612       H  0.49371242  0.54747473  0.08070644     0.12000
H2613       H  0.50182473  0.52197057  0.11886141     0.14700
H2614       H  0.50335570  0.49537210  0.10581711     0.13500
H2615       H  0.47228086  0.52792289  0.05789916     0.11200
H2616       H  0.49170370  0.55012433  0.05892543     0.13200
C2617       C  0.57450078  0.38670924  0.19423113     0.19300
C2618       C  0.56374584  0.38804015  0.18615814    -0.18800
C2619       C  0.55941125  0.40026626  0.18223762    -0.11100
C2620       C  0.56571925  0.41151241  0.18638011     0.21500
C2621       C  0.57660305  0.41020066  0.19427781    -0.20400
C2622       C  0.58101327  0.39794317  0.19811957    -0.11300
C2623       C  0.56048962  0.42467214  0.18372758    -0.15400
C2624       C  0.55300680  0.42762097  0.17344323    -0.29300
C2625       C  0.57767920  0.37358774  0.19937969    -0.03500
C2626       C  0.58886431  0.37018028  0.20496094    -0.40100
H2627       H  0.55843766  0.37957416  0.18315558     0.12700
H2628       H  0.55078777  0.40086122  0.17647095     0.12300
H2629       H  0.58154452  0.41871879  0.19773741     0.11800
H2630       H  0.58914929  0.39738461  0.20457574     0.12000
H2631       H  0.56291624  0.43224315  0.19059821     0.14700
H2632       H  0.55126562  0.42048963  0.16592380     0.13500
H2633       H  0.57021684  0.36633698  0.19860362     0.11200
H2634       H  0.59685485  0.37686137  0.20510261     0.13200
C2635       C  0.49947064  0.51521940  0.44149439     0.19300
C2636       C  0.51213468  0.51902062  0.43893786    -0.18800
C2637       C  0.51548175  0.52492684  0.42704682    -0.11100
C2638       C  0.50622234  0.52696711  0.41731792     0.21500
C2639       C  0.49358751  0.52300483  0.41981541    -0.20400
C2640       C  0.49019857  0.51729336  0.43179341    -0.11300
C2641       C  0.50956982  0.53237800  0.40420582    -0.15400
C2642       C  0.51937664  0.54058482  0.40200118    -0.29300
C2643       C  0.49642061  0.50846325  0.45402563    -0.03500
C2644       C  0.48495646  0.50920780  0.46006322    -0.40100
H2645       H  0.51950109  0.51736539  0.44617534     0.12700
H2646       H  0.52537630  0.52749209  0.42536120     0.12300
H2647       H  0.48629959  0.52427489  0.41241726     0.11800
H2648       H  0.48042852  0.51416402  0.43327559     0.12000
H2649       H  0.50344138  0.52975016  0.39609715     0.14700
H2650       H  0.52499734  0.54409766  0.41013807     0.13500
H2651       H  0.50410716  0.50310830  0.45872567     0.11200
H2652       H  0.47749537  0.51532560  0.45599373     0.13200
C2653       C  0.58518320  0.65842897  0.33008904     0.19300
C2654       C  0.58970586  0.64668142  0.32505713    -0.18800
C2655       C  0.58485559  0.63487288  0.32965476    -0.11100
C2656       C  0.57539725  0.63454932  0.33949616     0.21500
C2657       C  0.57146601  0.64626141  0.34511513    -0.20400
C2658       C  0.57625511  0.65809345  0.34044521    -0.11300
C2659       C  0.56931862  0.62219190  0.34385003    -0.15400
C2660       C  0.56762885  0.61225157  0.33562004    -0.29300
C2661       C  0.58961545  0.67078377  0.32398304    -0.03500
C2662       C  0.58206020  0.68129894  0.32328478    -0.40100
H2663       H  0.59673011  0.64664394  0.31724605     0.12700
H2664       H  0.58849329  0.62602547  0.32543014     0.12300
H2665       H  0.56438349  0.64628036  0.35287375     0.11800
H2666       H  0.57288493  0.66693882  0.34490132     0.12000
H2667       H  0.56526666  0.62165400  0.35362526     0.14700
H2668       H  0.57075968  0.61320645  0.32553811     0.13500
H2669       H  0.59867795  0.67078807  0.31875708     0.11200
H2670       H  0.57258218  0.68100239  0.32764035     0.13200
C2671       C  0.51830356  0.52886155  0.26957009     0.19300
C2672       C  0.51792002  0.53595205  0.25781695    -0.18800
C2673       C  0.51729344  0.52966116  0.24576473    -0.11100
C2674       C  0.51708927  0.51605558  0.24520351     0.21500
C2675       C  0.51730994  0.50898174  0.25696399    -0.20400
C2676       C  0.51788436  0.51526684  0.26900646    -0.11300
C2677       C  0.51770775  0.50881785  0.23267821    -0.15400
C2678       C  0.51480611  0.51381478  0.22085715    -0.29300
C2679       C  0.52029576  0.53595151  0.28201691    -0.03500
C2680       C  0.51812605  0.53095556  0.29403098    -0.40100
H2681       H  0.51839576  0.54643144  0.25794203     0.12700
H2682       H  0.51746698  0.53549822  0.23696787     0.12300
H2683       H  0.51731836  0.49849115  0.25683115     0.11800
H2684       H  0.51850809  0.50939796  0.27775266     0.12000
H2685       H  0.52071403  0.49876975  0.23331452     0.14700
H2686       H  0.51105740  0.52357493  0.21996736     0.13500
H2687       H  0.52382493  0.54580773  0.28117389     0.11200
H2688       H  0.51380433  0.52147714  0.29520347     0.13200
C2689       C  0.24045050  0.34408613  0.75347207     0.19300
C2690       C  0.23313262  0.35420207  0.75874735    -0.18800
C2691       C  0.23902738  0.36519438  0.76385677    -0.11100
C2692       C  0.25243073  0.36619893  0.76403481     0.21500
C2693       C  0.25979396  0.35592476  0.75916211    -0.20400
C2694       C  0.25388588  0.34501115  0.75380018    -0.11300
C2695       C  0.25882674  0.37780613  0.76946617    -0.15400
C2696       C  0.25442582  0.38981759  0.76708491    -0.29300
C2697       C  0.23370032  0.33260903  0.74814313    -0.03500
C2698       C  0.23852034  0.32496030  0.73870616    -0.40100
H2699       H  0.22277486  0.35365501  0.75880003     0.12700
H2700       H  0.23311109  0.37282790  0.76783747     0.12300
H2701       H  0.27014716  0.35642929  0.75934566     0.11800
H2702       H  0.25984090  0.33725421  0.75016779     0.12000
H2703       H  0.26768229  0.37651127  0.77483490     0.14700
H2704       H  0.24625201  0.39111852  0.76068923     0.13500
H2705       H  0.22403090  0.33082056  0.75168392     0.11200
H2706       H  0.24784008  0.32706600  0.73446795     0.13200
C2707       C  0.23835278  0.71063390  0.76041703     0.19300
C2708       C  0.23797741  0.70879076  0.74683045    -0.18800
C2709       C  0.24324676  0.69765098  0.74112101    -0.11100
C2710       C  0.24895259  0.68799639  0.74893141     0.21500
C2711       C  0.24926648  0.68981516  0.76250302    -0.20400
C2712       C  0.24407277  0.70094754  0.76819116    -0.11300
C2713       C  0.25390064  0.67553516  0.74354301    -0.15400
C2714       C  0.25744491  0.67366460  0.73099638    -0.29300
C2715       C  0.23220752  0.72241646  0.76617561    -0.03500
C2716       C  0.23509619  0.72702091  0.77810282    -0.40100
H2717       H  0.23349778  0.71597748  0.74059107     0.12700
H2718       H  0.24248843  0.69649814  0.73067618     0.12300
H2719       H  0.25343450  0.68248153  0.76879757     0.11800
H2720       H  0.24425118  0.70167349  0.77870305     0.12000
H2721       H  0.25493720  0.66757185  0.75042199     0.14700
H2722       H  0.25727633  0.68165534  0.72408852     0.13500
H2723       H  0.22527276  0.72762345  0.76026196     0.11200
H2724       H  0.24251430  0.72236383  0.78381658     0.13200
C2725       C  0.26166706  0.51992887  0.75967250     0.19300
C2726       C  0.26556230  0.53103432  0.76643400    -0.18800
C2727       C  0.26676030  0.54295250  0.75999599    -0.11100
C2728       C  0.26399638  0.54403395  0.74661906     0.21500
C2729       C  0.25975581  0.53304795  0.73993502    -0.20400
C2730       C  0.25847683  0.52115053  0.74638179    -0.11300
C2731       C  0.26621329  0.55616645  0.73910975    -0.15400
C2732       C  0.26598979  0.56803929  0.74443026    -0.29300
C2733       C  0.26158684  0.50731527  0.76680131    -0.03500
C2734       C  0.26073659  0.49565801  0.76102712    -0.40100
H2735       H  0.26806257  0.53041386  0.77666590     0.12700
H2736       H  0.27030743  0.55114465  0.76542335     0.12300
H2737       H  0.25751728  0.53365375  0.72963970     0.11800
H2738       H  0.25509432  0.51301203  0.74080317     0.12000
H2739       H  0.26776325  0.55525345  0.72866779     0.14700
H2740       H  0.26348150  0.56927440  0.75463546     0.13500
H2741       H  0.26300877  0.50767568  0.77727800     0.11200
H2742       H  0.25937997  0.49485841  0.75059683     0.13200
C2743       C  0.07204551  0.50957578  0.51570120     0.19300
C2744       C  0.07508373  0.50940855  0.50232111    -0.18800
C2745       C  0.08616322  0.51549677  0.49755324    -0.11100
C2746       C  0.09457993  0.52177657  0.50612309     0.21500
C2747       C  0.09168483  0.52170168  0.51952851    -0.20400
C2748       C  0.08053627  0.51575524  0.52427503    -0.11300
C2749       C  0.10676557  0.52785140  0.50155347    -0.15400
C2750       C  0.10850483  0.53277736  0.48945055    -0.29300
C2751       C  0.06031863  0.50271109  0.52044767    -0.03500
C2752       C  0.05400207  0.50593883  0.53147865    -0.40100
H2753       H  0.06884861  0.50453657  0.49551747     0.12700
H2754       H  0.08825795  0.51497034  0.48721498     0.12300
H2755       H  0.09810130  0.52625999  0.52638051     0.11800
H2756       H  0.07879419  0.51573998  0.53469342     0.12000
H2757       H  0.11445115  0.52864388  0.50859846     0.14700
H2758       H  0.10062977  0.53285865  0.48258632     0.13500
H2759       H  0.05656320  0.49497735  0.51443476     0.11200
H2760       H  0.05719669  0.51416934  0.53712721     0.13200
C2761       C  0.41430681  0.52350624  0.51525031     0.19300
C2762       C  0.42511305  0.51951337  0.52234762    -0.18800
C2763       C  0.43632669  0.51551614  0.51591040    -0.11100
C2764       C  0.43702082  0.51557099  0.50217367     0.21500
C2765       C  0.42632576  0.51983895  0.49511297    -0.20400
C2766       C  0.41511709  0.52371919  0.50151922    -0.11300
C2767       C  0.44880331  0.51184453  0.49479389    -0.15400
C2768       C  0.45785708  0.50367294  0.49932349    -0.29300
C2769       C  0.40254308  0.52782730  0.52239464    -0.03500
C2770       C  0.39076681  0.52754358  0.51708447    -0.40100
H2771       H  0.42486645  0.51945571  0.53292236     0.12700
H2772       H  0.44448398  0.51266710  0.52171913     0.12300
H2773       H  0.42663993  0.52018580  0.48454054     0.11800
H2774       H  0.40724014  0.52715853  0.49563823     0.12000
H2775       H  0.44973104  0.51556971  0.48488151     0.14700
H2776       H  0.45676319  0.49923184  0.50890007     0.13500
H2777       H  0.40358315  0.53097373  0.53243221     0.11200
H2778       H  0.38951701  0.52364524  0.50736557     0.13200
C2779       C  0.31561117  0.59770394  0.63877695     0.19300
C2780       C  0.32403431  0.58715604  0.63749114    -0.18800
C2781       C  0.32786329  0.58277401  0.62515822    -0.11100
C2782       C  0.32325586  0.58882108  0.61377781     0.21500
C2783       C  0.31509482  0.59955336  0.61504588    -0.20400
C2784       C  0.31134578  0.60400451  0.62737351    -0.11300
C2785       C  0.32555937  0.58338939  0.60054595    -0.15400
C2786       C  0.33574472  0.57606761  0.59725291    -0.29300
C2787       C  0.31059278  0.60093389  0.65203117    -0.03500
C2788       C  0.30439257  0.61197589  0.65514079    -0.40100
H2789       H  0.32737990  0.58201991  0.64608446     0.12700
H2790       H  0.33390821  0.57428732  0.62458871     0.12300
H2791       H  0.31130523  0.60430712  0.60643015     0.11800
H2792       H  0.30466127  0.61197489  0.62783694     0.12000
H2793       H  0.31843966  0.58554748  0.59315292     0.14700
H2794       H  0.34350089  0.57460160  0.60410927     0.13500
H2795       H  0.31196087  0.59365532  0.65960672     0.11200
H2796       H  0.30357255  0.61980364  0.64807924     0.13200
C2797       C  0.23809444  0.54066049  0.49767069     0.19300
C2798       C  0.24947586  0.54189560  0.49038106    -0.18800
C2799       C  0.26143650  0.54115007  0.49645518    -0.11100
C2800       C  0.26229401  0.53918173  0.51002563     0.21500
C2801       C  0.25093754  0.53774118  0.51727320    -0.20400
C2802       C  0.23899373  0.53844989  0.51120926    -0.11300
C2803       C  0.27465261  0.53969541  0.51719768    -0.15400
C2804       C  0.28625416  0.53784218  0.51170580    -0.29300
C2805       C  0.22562170  0.54265650  0.49089909    -0.03500
C2806       C  0.21406419  0.53982063  0.49612386    -0.40100
H2807       H  0.24911152  0.54372949  0.47997698     0.12700
H2808       H  0.26992532  0.54262890  0.49053451     0.12300
H2809       H  0.25129784  0.53634143  0.52774155     0.11800
H2810       H  0.23056348  0.53771389  0.51732614     0.12000
H2811       H  0.27410424  0.54165758  0.52757777     0.14700
H2812       H  0.28707887  0.53500839  0.50156505     0.13500
H2813       H  0.22604730  0.54679607  0.48115416     0.11200
H2814       H  0.21331257  0.53518679  0.50560065     0.13200
C2815       C  0.25684981  0.33643923  0.27463878     0.19300
C2816       C  0.25266696  0.34698315  0.28211766    -0.18800
C2817       C  0.24933992  0.35873917  0.27611621    -0.11100
C2818       C  0.24995756  0.36013254  0.26243615     0.21500
C2819       C  0.25372294  0.34942462  0.25495199    -0.20400
C2820       C  0.25720449  0.33773716  0.26096229    -0.11300
C2821       C  0.24638808  0.37239562  0.25558469    -0.15400
C2822       C  0.24703417  0.38416640  0.26114034    -0.29300
C2823       C  0.26046627  0.32412829  0.28131602    -0.03500
C2824       C  0.26969177  0.31624195  0.27671000    -0.40100
H2825       H  0.25210296  0.34616112  0.29264876     0.12700
H2826       H  0.24608140  0.36660271  0.28221890     0.12300
H2827       H  0.25406913  0.35013592  0.24440405     0.11800
H2828       H  0.25997921  0.32967257  0.25486680     0.12000
H2829       H  0.24369641  0.37172114  0.24539349     0.14700
H2830       H  0.25046794  0.38509587  0.27106179     0.13500
H2831       H  0.25588544  0.32185617  0.29059203     0.11200
H2832       H  0.27493163  0.31896078  0.26793988     0.13200
C2833       C  0.25717672  0.71330713  0.24601987     0.19300
C2834       C  0.24464644  0.71058517  0.25023929    -0.18800
C2835       C  0.24165004  0.69859812  0.25605134    -0.11100
C2836       C  0.25112058  0.68898807  0.25748186     0.21500
C2837       C  0.26354851  0.69163697  0.25300977    -0.20400
C2838       C  0.26659127  0.70365954  0.24745758    -0.11300
C2839       C  0.24831176  0.67591471  0.26301166    -0.15400
C2840       C  0.23981474  0.67378265  0.27270211    -0.29300
C2841       C  0.26019491  0.72597685  0.23962956    -0.03500
C2842       C  0.27169272  0.73169740  0.24087670    -0.40100
H2843       H  0.23716841  0.71777872  0.24908188     0.12700
H2844       H  0.23190244  0.69675071  0.25910796     0.12300
H2845       H  0.27098040  0.68435085  0.25384289     0.11800
H2846       H  0.27624734  0.70524680  0.24398464     0.12000
H2847       H  0.25409353  0.66787459  0.25953033     0.14700
H2848       H  0.23469459  0.68190841  0.27695660     0.13500
H2849       H  0.25272993  0.73083072  0.23409462     0.11200
H2850       H  0.27874861  0.72735836  0.24731647     0.13200
C2851       C  0.17970991  0.59095934  0.39388845     0.19300
C2852       C  0.19025809  0.59919651  0.39204239    -0.18800
C2853       C  0.19388209  0.60332707  0.37953815    -0.11100
C2854       C  0.18705950  0.59920837  0.36853959     0.21500
C2855       C  0.17646097  0.59104057  0.37035617    -0.20400
C2856       C  0.17275004  0.58700093  0.38289231    -0.11300
C2857       C  0.19149159  0.60221141  0.35505819    -0.15400
C2858       C  0.19820333  0.61288811  0.35178564    -0.29300
C2859       C  0.17707551  0.58590688  0.40726816    -0.03500
C2860       C  0.16600812  0.58039752  0.41120205    -0.40100
H2861       H  0.19590974  0.60224237  0.40031375     0.12700
H2862       H  0.20233189  0.60928635  0.37849276     0.12300
H2863       H  0.17116833  0.58757741  0.36200735     0.11800
H2864       H  0.16477667  0.58040260  0.38383072     0.12000
H2865       H  0.18908720  0.59529140  0.34751382     0.14700
H2866       H  0.19983457  0.62041933  0.35892904     0.13500
H2867       H  0.18477114  0.58685333  0.41427667     0.11200
H2868       H  0.15783613  0.58005540  0.40473112     0.13200
C2869       C  0.24218116  0.54118661  0.26938648     0.19300
C2870       C  0.24263549  0.53032698  0.27771975    -0.18800
C2871       C  0.24387361  0.51781348  0.27268531    -0.11100
C2872       C  0.24462933  0.51585464  0.25912111     0.21500
C2873       C  0.24448943  0.52674915  0.25081370    -0.20400
C2874       C  0.24328067  0.53925874  0.25585204    -0.11300
C2875       C  0.24433043  0.50274641  0.25309682    -0.15400
C2876       C  0.24600833  0.49145474  0.25958635    -0.29300
C2877       C  0.23947818  0.55412114  0.27515820    -0.03500
C2878       C  0.24160866  0.56556628  0.26908761    -0.40100
H2879       H  0.24171236  0.53150560  0.28817570     0.12700
H2880       H  0.24370346  0.50975369  0.27947828     0.12300
H2881       H  0.24493412  0.52555769  0.24033329     0.11800
H2882       H  0.24268056  0.54728895  0.24904457     0.12000
H2883       H  0.24228410  0.50243812  0.24273832     0.14700
H2884       H  0.24876448  0.49135472  0.26976021     0.13500
H2885       H  0.23556195  0.55414430  0.28499182     0.11200
H2886       H  0.24627016  0.56590594  0.25961214     0.13200
C2887       C  0.43402282  0.53403699  0.00510590     0.19300
C2888       C  0.43129553  0.53418987  0.99168384    -0.18800
C2889       C  0.42019365  0.52834161  0.98689098    -0.11100
C2890       C  0.41147059  0.52231646  0.99547947     0.21500
C2891       C  0.41414885  0.52221736  0.00889387    -0.20400
C2892       C  0.42529490  0.52794500  0.01367307    -0.11300
C2893       C  0.39903997  0.51700599  0.99096235    -0.15400
C2894       C  0.39705778  0.51229979  0.97889910    -0.29300
C2895       C  0.44563070  0.54092832  0.00985654    -0.03500
C2896       C  0.45125087  0.53836144  0.02140529    -0.40100
H2897       H  0.43773376  0.53896776  0.98487732     0.12700
H2898       H  0.41826854  0.52894874  0.97653667     0.12300
H2899       H  0.40749114  0.51781627  0.01574248     0.11800
H2900       H  0.42676958  0.52793172  0.02411211     0.12000
H2901       H  0.39125537  0.51674023  0.99802510     0.14700
H2902       H  0.40495574  0.51154086  0.97202566     0.13500
H2903       H  0.44981324  0.54825357  0.00348001     0.11200
H2904       H  0.44763293  0.53060393  0.02758243     0.13200
C2905       C  0.30881673  0.44491222  0.86719972     0.19300
C2906       C  0.32194025  0.44497155  0.87003445    -0.18800
C2907       C  0.32630955  0.44926608  0.88220002    -0.11100
C2908       C  0.31754320  0.45340364  0.89180881     0.21500
C2909       C  0.30441131  0.45279529  0.88907818    -0.20400
C2910       C  0.30008730  0.44865010  0.87694301    -0.11300
C2911       C  0.32140512  0.45837935  0.90482044    -0.15400
C2912       C  0.33321369  0.46249365  0.90802746    -0.29300
C2913       C  0.30432685  0.44135217  0.85395535    -0.03500
C2914       C  0.29475121  0.44791720  0.84824404    -0.40100
H2915       H  0.32883678  0.44201530  0.86269907     0.12700
H2916       H  0.33648251  0.44927694  0.88399472     0.12300
H2917       H  0.29741472  0.45574691  0.89632555     0.11800
H2918       H  0.28989477  0.44839645  0.87517766     0.12000
H2919       H  0.31378591  0.45923455  0.91199907     0.14700
H2920       H  0.34104044  0.46195456  0.90106158     0.13500
H2921       H  0.30961302  0.43414699  0.84842238     0.11200
H2922       H  0.29044613  0.45606242  0.85330976     0.13200
C2923       C  0.08085473  0.53090920  0.01449759     0.19300
C2924       C  0.08231209  0.52843018  0.02792905    -0.18800
C2925       C  0.09378172  0.52329015  0.03283571    -0.11100
C2926       C  0.10409549  0.52063454  0.02436305     0.21500
C2927       C  0.10260912  0.52318680  0.01097247    -0.20400
C2928       C  0.09119016  0.52824700  0.00609044    -0.11300
C2929       C  0.11682379  0.51591303  0.02888247    -0.15400
C2930       C  0.11933356  0.51064215  0.04068594    -0.29300
C2931       C  0.06876253  0.53685668  0.00959245    -0.03500
C2932       C  0.06469586  0.53549906  0.99720305    -0.40100
H2933       H  0.07456770  0.53053903  0.03465169     0.12700
H2934       H  0.09459118  0.52173622  0.04325359     0.12300
H2935       H  0.11041210  0.52140640  0.00422146     0.11800
H2936       H  0.09068594  0.53040795  0.99575808     0.12000
H2937       H  0.12455674  0.51662285  0.02182097     0.14700
H2938       H  0.11174186  0.50923225  0.04779981     0.13500
H2939       H  0.06291749  0.54228005  0.01645700     0.11200
H2940       H  0.06997540  0.52934395  0.99052179     0.13200
C2941       C  0.20059159  0.45461537  0.15766876     0.19300
C2942       C  0.20367400  0.46633283  0.15139989    -0.18800
C2943       C  0.19836493  0.46955430  0.13934878    -0.11100
C2944       C  0.18975649  0.46113161  0.13322455     0.21500
C2945       C  0.18641301  0.44951378  0.13956979    -0.20400
C2946       C  0.19184988  0.44620738  0.15165675    -0.11300
C2947       C  0.18418718  0.46447345  0.12029222    -0.15400
C2948       C  0.19117986  0.47067110  0.11116477    -0.29300
C2949       C  0.20622354  0.45212772  0.17075191    -0.03500
C2950       C  0.20704827  0.44048949  0.17674726    -0.40100
H2951       H  0.21021865  0.47308911  0.15587817     0.12700
H2952       H  0.20086353  0.47876805  0.13493279     0.12300
H2953       H  0.17969203  0.44293991  0.13510346     0.11800
H2954       H  0.18899064  0.43724606  0.15633595     0.12000
H2955       H  0.17452687  0.46135186  0.11806675     0.14700
H2956       H  0.20118141  0.47272712  0.11310657     0.13500
H2957       H  0.21030353  0.46048996  0.17552310     0.11200
H2958       H  0.20373425  0.43180235  0.17194253     0.13200
C2959       C  0.26934927  0.50682917  0.99917762     0.19300
C2960       C  0.25729359  0.50652378  0.99320934    -0.18800
C2961       C  0.24607030  0.50718034  0.00067561    -0.11100
C2962       C  0.24667455  0.50811309  0.01436153     0.21500
C2963       C  0.25874580  0.50865194  0.02029770    -0.20400
C2964       C  0.26995810  0.50801584  0.01283181    -0.11300
C2965       C  0.23514427  0.50739438  0.02292681    -0.15400
C2966       C  0.22296967  0.50861276  0.01880456    -0.29300
C2967       C  0.28093782  0.50480685  0.99095472    -0.03500
C2968       C  0.29287865  0.50802869  0.99457167    -0.40100
H2969       H  0.25654849  0.50548338  0.98272253     0.12700
H2970       H  0.23703128  0.50645260  0.99566960     0.12300
H2971       H  0.25951838  0.50921831  0.03082184     0.11800
H2972       H  0.27901485  0.50792843  0.01787971     0.12000
H2973       H  0.23685183  0.50551227  0.03320435     0.14700
H2974       H  0.22088389  0.51119881  0.00877446     0.13500
H2975       H  0.27949719  0.50047518  0.98144343     0.11200
H2976       H  0.29450413  0.51312126  0.00364045     0.13200
loop_ 
_geom_bond_atom_site_label_1 
_geom_bond_atom_site_label_2 
_geom_bond_distance 
_geom_bond_site_symmetry_2 
_ccdc_geom_bond_type 
N1            N2   1.322       .  A
N1            C5   1.353       .  A
N1           Cu9   2.099       .  S
N2            C3   1.339       .  A
N2           Cu8   2.054       .  S
C3            C4   1.375       .  A
C3            H6   1.083       .  S
C4            C5   1.392       .  A
C4         C2948   1.475       .  S
C5            H7   1.082       .  S
Cu8          N11   2.054       .  S
Cu9          N19   2.101       .  S
Cu10         N12   2.080       .  S
Cu10         N18   2.082       .  S
N11          N12   1.318       .  A
N11          C15   1.341       .  A
N12          C13   1.348       .  A
C13          C14   1.388       .  A
C13          H16   1.082       .  S
C14          C15   1.385       .  A
C14        C2966   1.481       .  S
C15          H17   1.081       .  S
N18          N19   1.325       .  A
N18          C22   1.343       .  A
N19          C20   1.350       .  A
C20          C21   1.387       .  A
C20          H23   1.082       .  S
C21          C22   1.385       .  A
C21        C2930   1.488       .  S
C22          H24   1.081       .  S
N25          N26   1.322       .  A
N25          C29   1.350       .  A
N25         Cu33   2.095       .  S
N26          C27   1.341       .  A
N26         Cu32   2.064       .  S
C27          C28   1.385       .  A
C27          H30   1.080       .  S
C28          C29   1.389       .  A
C28        C2912   1.486       .  S
C29          H31   1.082       .  S
Cu32         N35   2.064       .  S
Cu33         N43   2.096       .  S
Cu34         N36   2.076       .  S
Cu34         N42   2.077       .  S
N35          N36   1.320       .  A
N35          C39   1.343       .  A
N36          C37   1.346       .  A
C37          C38   1.385       .  A
C37          H40   1.082       .  S
C38          C39   1.386       .  A
C38        C2968   1.480       .  S
C39          H41   1.081       .  S
N42          N43   1.324       .  A
N42          C46   1.344       .  A
N43          C44   1.349       .  A
C44          C45   1.386       .  A
C44          H47   1.082       .  S
C45          C46   1.384       .  A
C45        C2894   1.483       .  S
C46          H48   1.082       .  S
N49          N50   1.321       .  A
N49          C53   1.349       .  A
N49         Cu57   2.088       .  S
N50          C51   1.342       .  A
N50         Cu56   2.058       .  S
C51          C52   1.383       .  A
C51          H54   1.082       .  S
C52          C53   1.387       .  A
C52        C2858   1.480       .  S
C53          H55   1.083       .  S
Cu56         N59   2.059       .  S
Cu57         N67   2.090       .  S
Cu58         N60   2.098       .  S
Cu58         N66   2.099       .  S
N59          N60   1.321       .  A
N59          C63   1.342       .  A
N60          C61   1.350       .  A
C61          C62   1.389       .  A
C61          H64   1.082       .  S
C62          C63   1.384       .  A
C62        C2878   1.484       .  S
C63          H65   1.081       .  S
N66          N67   1.326       .  A
N66          C70   1.349       .  A
N67          C68   1.347       .  A
C68          C69   1.383       .  A
C68          H71   1.084       .  S
C69          C70   1.389       .  A
C69        C2840   1.485       .  S
C70          H72   1.081       .  S
N73          N74   1.321       .  A
N73          C77   1.352       .  A
N73         Cu81   2.094       .  S
N74          C75   1.339       .  A
N74         Cu80   2.058       .  S
C75          C76   1.384       .  A
C75          H78   1.080       .  S
C76          C77   1.390       .  A
C76        C2950   1.486       .  S
C77          H79   1.082       .  S
Cu80         N83   2.058       .  S
Cu81         N91   2.096       .  S
Cu82         N84   2.089       .  S
Cu82         N90   2.091       .  S
N83          N84   1.320       .  A
N83          C87   1.342       .  A
N84          C85   1.350       .  A
C85          C86   1.389       .  A
C85          H88   1.081       .  S
C86          C87   1.385       .  A
C86        C2876   1.484       .  S
C87          H89   1.081       .  S
N90          N91   1.326       .  A
N90          C94   1.346       .  A
N91          C92   1.349       .  A
C92          C93   1.388       .  A
C92          H95   1.082       .  S
C93          C94   1.383       .  A
C93        C2822   1.484       .  S
C94          H96   1.082       .  S
N97          N98   1.323       .  A
N97         C101   1.350       .  A
N97        Cu105   2.097       .  S
N98          C99   1.343       .  A
N98        Cu104   2.071       .  S
C99         C100   1.384       .  A
C99         H102   1.082       .  S
C100        C101   1.387       .  A
C100       C2786   1.483       .  S
C101        H103   1.082       .  S
Cu104       N107   2.071       .  S
Cu105       N115   2.097       .  S
Cu106       N108   2.086       .  S
Cu106       N114   2.087       .  S
N107        N108   1.321       .  A
N107        C111   1.345       .  A
N108        C109   1.348       .  A
C109        C110   1.387       .  A
C109        H112   1.082       .  S
C110        C111   1.387       .  A
C110       C2804   1.484       .  S
C111        H113   1.081       .  S
N114        N115   1.324       .  A
N114        C118   1.344       .  A
N115        C116   1.352       .  A
C116        C117   1.390       .  A
C116        H119   1.082       .  S
C117        C118   1.382       .  A
C117       C2770   1.485       .  S
C118        H120   1.083       .  S
N121        N122   1.321       .  A
N121        C125   1.350       .  A
N121       Cu129   2.092       .  S
N122        C123   1.341       .  A
N122       Cu128   2.060       .  S
C123        C124   1.383       .  A
C123        H126   1.081       .  S
C124        C125   1.388       .  A
C124       C2860   1.483       .  S
C125        H127   1.083       .  S
Cu128       N131   2.061       .  S
Cu129       N139   2.094       .  S
Cu130       N132   2.090       .  S
Cu130       N138   2.091       .  S
N131        N132   1.320       .  A
N131        C135   1.344       .  A
N132        C133   1.348       .  A
C133        C134   1.388       .  A
C133        H136   1.081       .  S
C134        C135   1.385       .  A
C134       C2806   1.484       .  S
C135        H137   1.081       .  S
N138        N139   1.325       .  A
N138        C142   1.348       .  A
N139        C140   1.347       .  A
C140        C141   1.384       .  A
C140        H143   1.083       .  S
C141        C142   1.387       .  A
C141       C2750   1.485       .  S
C142        H144   1.082       .  S
N145        N146   1.323       .  A
N145        C149   1.350       .  A
N145       Cu153   2.104       .  S
N146        C147   1.343       .  A
N146       Cu152   2.064       .  S
C147        C148   1.384       .  A
C147        H150   1.081       .  S
C148        C149   1.389       .  A
C148       C2788   1.485       .  S
C149        H151   1.083       .  S
Cu152       N155   2.064       .  S
Cu153       N163   2.104       .  S
Cu154       N156   2.076       .  S
Cu154       N162   2.078       .  S
N155        N156   1.321       .  A
N155        C159   1.343       .  A
N156        C157   1.347       .  A
C157        C158   1.384       .  A
C157        H160   1.082       .  S
C158        C159   1.385       .  A
C158       C2732   1.478       .  S
C159        H161   1.081       .  S
N162        N163   1.324       .  A
N162        C166   1.345       .  A
N163        C164   1.350       .  A
C164        C165   1.389       .  A
C164        H167   1.081       .  S
C165        C166   1.386       .  A
C165       C2714   1.489       .  S
C166        H168   1.082       .  S
N169        N170   1.323       .  A
N169        C173   1.352       .  A
N169       Cu177   2.098       .  S
N170        C171   1.339       .  A
N170       Cu176   2.057       .  S
C171        C172   1.375       .  A
C171        H174   1.083       .  S
C172        C173   1.390       .  A
C172       C2914   1.473       .  S
C173        H175   1.082       .  S
Cu176       N179   2.056       .  S
Cu177       N187   2.099       .  S
Cu178       N180   2.076       .  S
Cu178       N186   2.078       .  S
N179        N180   1.319       .  A
N179        C183   1.342       .  A
N180        C181   1.346       .  A
C181        C182   1.386       .  A
C181        H184   1.082       .  S
C182        C183   1.385       .  A
C182       C2734   1.478       .  S
C183        H185   1.081       .  S
N186        N187   1.325       .  A
N186        C190   1.343       .  A
N187        C188   1.350       .  A
C188        C189   1.388       .  A
C188        H191   1.082       .  S
C189        C190   1.379       .  A
C189       C2696   1.478       .  S
C190        H192   1.083       .  S
N193        N194   1.322       .  A
N193        C197   1.352       .  A
N193       Cu201   2.097       .  S
N194        C195   1.341       .  A
N194       Cu200   2.060       .  S
C195        C196   1.378       .  A
C195        H198   1.082       .  S
C196        C197   1.392       .  A
C196       C2660   1.479       .  S
C197        H199   1.082       .  S
Cu200       N203   2.060       .  S
Cu201       N211   2.099       .  S
Cu202       N204   2.088       .  S
Cu202       N210   2.089       .  S
N203        N204   1.320       .  A
N203        C207   1.342       .  A
N204        C205   1.349       .  A
C205        C206   1.388       .  A
C205        H208   1.082       .  S
C206        C207   1.384       .  A
C206       C2680   1.483       .  S
C207        H209   1.081       .  S
N210        N211   1.326       .  A
N210        C214   1.347       .  A
N211        C212   1.348       .  A
C212        C213   1.385       .  A
C212        H215   1.083       .  S
C213        C214   1.386       .  A
C213       C2642   1.485       .  S
C214        H216   1.081       .  S
N217        N218   1.322       .  A
N217        C221   1.349       .  A
N217       Cu225   2.093       .  S
N218        C219   1.344       .  A
N218       Cu224   2.066       .  S
C219        C220   1.384       .  A
C219        H222   1.082       .  S
C220        C221   1.387       .  A
C220       C2624   1.482       .  S
C221        H223   1.082       .  S
Cu224       N227   2.066       .  S
Cu225       N235   2.094       .  S
Cu226       N228   2.088       .  S
Cu226       N234   2.089       .  S
N227        N228   1.321       .  A
N227        C231   1.343       .  A
N228        C229   1.349       .  A
C229        C230   1.388       .  A
C229        H232   1.083       .  S
C230        C231   1.385       .  A
C230       C2678   1.484       .  S
C231        H233   1.081       .  S
N234        N235   1.325       .  A
N234        C238   1.348       .  A
N235        C236   1.348       .  A
C236        C237   1.385       .  A
C236        H239   1.082       .  S
C237        C238   1.386       .  A
C237       C2606   1.484       .  S
C238        H240   1.082       .  S
N241        N242   1.321       .  A
N241        C245   1.352       .  A
N241       Cu249   2.101       .  S
N242        C243   1.340       .  A
N242       Cu248   2.052       .  S
C243        C244   1.377       .  A
C243        H246   1.082       .  S
C244        C245   1.393       .  A
C244       C2662   1.480       .  S
C245        H247   1.081       .  S
Cu248       N251   2.052       .  S
Cu249       N259   2.103       .  S
Cu250       N252   2.087       .  S
Cu250       N258   2.090       .  S
N251        N252   1.320       .  A
N251        C255   1.339       .  A
N252        C253   1.350       .  A
C253        C254   1.388       .  A
C253        H256   1.081       .  S
C254        C255   1.382       .  A
C254       C2590   1.479       .  S
C255        H257   1.082       .  S
N258        N259   1.326       .  A
N258        C262   1.348       .  A
N259        C260   1.348       .  A
C260        C261   1.386       .  A
C260        H263   1.081       .  S
C261        C262   1.387       .  A
C261       C2570   1.487       .  S
C262        H264   1.082       .  S
N265        N266   1.323       .  A
N265        C269   1.350       .  A
N265       Cu273   2.105       .  S
N266        C267   1.343       .  A
N266       Cu272   2.062       .  S
C267        C268   1.382       .  A
C267        H270   1.082       .  S
C268        C269   1.389       .  A
C268       C2552   1.483       .  S
C269        H271   1.082       .  S
Cu272       N275   2.061       .  S
Cu273       N283   2.105       .  S
Cu274       N276   2.074       .  S
Cu274       N282   2.075       .  S
N275        N276   1.320       .  A
N275        C279   1.343       .  A
N276        C277   1.346       .  A
C277        C278   1.384       .  A
C277        H280   1.081       .  S
C278        C279   1.385       .  A
C278       C2588   1.478       .  S
C279        H281   1.081       .  S
N282        N283   1.324       .  A
N282        C286   1.343       .  A
N283        C284   1.352       .  A
C284        C285   1.391       .  A
C284        H287   1.082       .  S
C285        C286   1.380       .  A
C285       C2536   1.484       .  S
C286        H288   1.082       .  S
N289        N290   1.322       .  A
N289        C293   1.351       .  A
N289       Cu297   2.098       .  S
N290        C291   1.341       .  A
N290       Cu296   2.059       .  S
C291        C292   1.382       .  A
C291        H294   1.081       .  S
C292        C293   1.389       .  A
C292       C2498   1.482       .  S
C293        H295   1.082       .  S
Cu296       N299   2.059       .  S
Cu297       N307   2.099       .  S
Cu298       N300   2.076       .  S
Cu298       N306   2.078       .  S
N299        N300   1.319       .  A
N299        C303   1.343       .  A
N300        C301   1.347       .  A
C301        C302   1.386       .  A
C301        H304   1.081       .  S
C302        C303   1.386       .  A
C302       C2516   1.480       .  S
C303        H305   1.081       .  S
N306        N307   1.325       .  A
N306        C310   1.344       .  A
N307        C308   1.350       .  A
C308        C309   1.390       .  A
C308        H311   1.082       .  S
C309        C310   1.380       .  A
C309       C2480   1.482       .  S
C310        H312   1.082       .  S
N313        N314   1.321       .  A
N313        C317   1.351       .  A
N313       Cu321   2.096       .  S
N314        C315   1.340       .  A
N314       Cu320   2.058       .  S
C315        C316   1.383       .  A
C315        H318   1.081       .  S
C316        C317   1.390       .  A
C316       C2626   1.484       .  S
C317        H319   1.082       .  S
Cu320       N323   2.058       .  S
Cu321       N331   2.098       .  S
Cu322       N324   2.084       .  S
Cu322       N330   2.085       .  S
N323        N324   1.320       .  A
N323        C327   1.342       .  A
N324        C325   1.348       .  A
C325        C326   1.387       .  A
C325        H328   1.082       .  S
C326        C327   1.384       .  A
C326       C2518   1.480       .  S
C327        H329   1.081       .  S
N330        N331   1.326       .  A
N330        C334   1.347       .  A
N331        C332   1.348       .  A
C332        C333   1.384       .  A
C332        H335   1.083       .  S
C333        C334   1.385       .  A
C333       C2462   1.482       .  S
C334        H336   1.081       .  S
N337        N338   1.323       .  A
N337        C341   1.348       .  A
N337       Cu345   2.089       .  S
N338        C339   1.343       .  A
N338       Cu344   2.071       .  S
C339        C340   1.385       .  A
C339        H342   1.082       .  S
C340        C341   1.386       .  A
C340       C2500   1.482       .  S
C341        H343   1.082       .  S
Cu344       N347   2.070       .  S
Cu345       N355   2.089       .  S
Cu346       N348   2.070       .  S
Cu346       N354   2.070       .  S
N347        N348   1.320       .  A
N347        C351   1.344       .  A
N348        C349   1.346       .  A
C349        C350   1.384       .  A
C349        H352   1.082       .  S
C350        C351   1.387       .  A
C350       C2446   1.480       .  S
C351        H353   1.081       .  S
N354        N355   1.323       .  A
N354        C358   1.342       .  A
N355        C356   1.349       .  A
C356        C357   1.386       .  A
C356        H359   1.082       .  S
C357        C358   1.384       .  A
C357       C2428   1.481       .  S
C358        H360   1.082       .  S
N361        N362   1.323       .  A
N361        C365   1.350       .  A
N361       Cu369   2.096       .  S
N362        C363   1.343       .  A
N362       Cu368   2.069       .  S
C363        C364   1.384       .  A
C363        H366   1.082       .  S
C364        C365   1.388       .  A
C364       C2554   1.485       .  S
C365        H367   1.082       .  S
Cu368       N371   2.068       .  S
Cu369       N379   2.096       .  S
Cu370       N372   2.075       .  S
Cu370       N378   2.076       .  S
N371        N372   1.320       .  A
N371        C375   1.345       .  A
N372        C373   1.346   1_565  A
C373        C374   1.384       .  A
C373        H376   1.082       .  S
C374        C375   1.386   1_545  A
C374       C2444   1.479       .  S
C375        H377   1.081       .  S
N378        N379   1.324       .  A
N378        C382   1.345   1_565  A
N379        C380   1.349       .  A
C380        C381   1.386       .  A
C380        H383   1.083       .  S
C381        C382   1.384   1_565  A
C381       C2410   1.482   1_565  S
C382        H384   1.081       .  S
N385        N386   1.321       .  A
N385        C389   1.348       .  A
N385       Cu393   2.084       .  S
N386        C387   1.342       .  A
N386       Cu392   2.062       .  S
C387        C388   1.383       .  A
C387        H390   1.082       .  S
C388        C389   1.386       .  A
C388       C2372   1.478       .  S
C389        H391   1.082       .  S
Cu392       N395   2.062       .  S
Cu393       N403   2.086       .  S
Cu394       N396   2.090       .  S
Cu394       N402   2.091       .  S
N395        N396   1.321       .  A
N395        C399   1.342       .  A
N396        C397   1.350       .  A
C397        C398   1.391       .  A
C397        H400   1.082       .  S
C398        C399   1.380       .  A
C398       C2390   1.480       .  S
C399        H401   1.081       .  S
N402        N403   1.325       .  A
N402        C406   1.346       .  A
N403        C404   1.348       .  A
C404        C405   1.387       .  A
C404        H407   1.082       .  S
C405        C406   1.384       .  A
C405       C2354   1.483       .  S
C406        H408   1.081       .  S
N409        N410   1.321       .  A
N409        C413   1.353       .  A
N409       Cu417   2.101       .  S
N410        C411   1.340       .  A
N410       Cu416   2.057       .  S
C411        C412   1.381       .  A
C411        H414   1.081       .  S
C412        C413   1.391       .  A
C412       C2336   1.485       .  S
C413        H415   1.082       .  S
Cu416       N419   2.057       .  S
Cu417       N427   2.103       .  S
Cu418       N420   2.085       .  S
Cu418       N426   2.087       .  S
N419        N420   1.319       .  A
N419        C423   1.342       .  A
N420        C421   1.350       .  A
C421        C422   1.391       .  A
C421        H424   1.082       .  S
C422        C423   1.380       .  A
C422       C2392   1.479       .  S
C423        H425   1.081       .  S
N426        N427   1.326       .  A
N426        C430   1.345       .  A
N427        C428   1.350       .  A
C428        C429   1.389       .  A
C428        H431   1.081       .  S
C429        C430   1.381       .  A
C429       C2318   1.484       .  S
C430        H432   1.083       .  S
N433        N434   1.322       .  A
N433        C437   1.353       .  A
N433       Cu441   2.103       .  S
N434        C435   1.341       .  A
N434       Cu440   2.060       .  S
C435        C436   1.378       .  A
C435        H438   1.083       .  S
C436        C437   1.393       .  A
C436       C2282   1.481       .  S
C437        H439   1.081       .  S
Cu440       N443   2.060       .  S
Cu441       N451   2.105       .  S
Cu442       N444   2.086       .  S
Cu442       N450   2.088       .  S
N443        N444   1.320       .  A
N443        C447   1.341       .  A
N444        C445   1.351       .  A
C445        C446   1.391       .  A
C445        H448   1.082       .  S
C446        C447   1.379       .  A
C446       C2300   1.478       .  S
C447        H449   1.081       .  S
N450        N451   1.326       .  A
N450        C454   1.345       .  A
N451        C452   1.352       .  A
C452        C453   1.389       .  A
C452        H455   1.082       .  S
C453        C454   1.381       .  A
C453       C2266   1.484       .  S
C454        H456   1.082       .  S
N457        N458   1.321       .  A
N457        C461   1.351       .  A
N457       Cu465   2.100       .  S
N458        C459   1.343       .  A
N458       Cu464   2.057       .  S
C459        C460   1.383       .  A
C459        H462   1.082       .  S
C460        C461   1.390       .  A
C460       C2338   1.485       .  S
C461        H463   1.082       .  S
Cu464       N467   2.058       .  S
Cu465       N475   2.102       .  S
Cu466       N468   2.094       .  S
Cu466       N474   2.096       .  S
N467        N468   1.322       .  A
N467        C471   1.341       .  A
N468        C469   1.351       .  A
C469        C470   1.391       .  A
C469        H472   1.082       .  S
C470        C471   1.378       .  A
C470       C2302   1.478       .  S
C471        H473   1.082       .  S
N474        N475   1.326       .  A
N474        C478   1.350       .  A
N475        C476   1.348       .  A
C476        C477   1.386       .  A
C476        H479   1.082       .  S
C477        C478   1.388       .  A
C477       C2246   1.489       .  S
C478        H480   1.082       .  S
N481        N482   1.321       .  A
N481        C485   1.350       .  A
N481       Cu489   2.092       .  S
N482        C483   1.339       .  A
N482       Cu488   2.050       .  S
C483        C484   1.381       .  A
C483        H486   1.081       .  S
C484        C485   1.388       .  A
C484       C2210   1.479       .  S
C485        H487   1.081       .  S
Cu488       N491   2.050       .  S
Cu489       N499   2.094       .  S
Cu490       N492   2.079       .  S
Cu490       N498   2.081       .  S
N491        N492   1.319       .  A
N491        C495   1.341       .  A
N492        C493   1.347       .  A
C493        C494   1.389       .  A
C493        H496   1.082       .  S
C494        C495   1.379       .  A
C494       C2228   1.475       .  S
C495        H497   1.081       .  S
N498        N499   1.325       .  A
N498        C502   1.344       .  A
N499        C500   1.349       .  A
C500        C501   1.388       .  A
C500        H503   1.082       .  S
C501        C502   1.381       .  A
C501       C2192   1.482       .  S
C502        H504   1.082       .  S
N505        N506   1.319       .  A
N505        C509   1.349       .  A
N505       Cu513   2.088       .  S
N506        C507   1.340       .  A
N506       Cu512   2.049       .  S
C507        C508   1.383       .  A
C507        H510   1.082       .  S
C508        C509   1.389       .  A
C508       C2374   1.481       .  S
C509        H511   1.082       .  S
Cu512       N515   2.050       .  S
Cu513       N523   2.090       .  S
Cu514       N516   2.090       .  S
Cu514       N522   2.092       .  S
N515        N516   1.321       .  A
N515        C519   1.339       .  A
N516        C517   1.350       .  A
C517        C518   1.390       .  A
C517        H520   1.082       .  S
C518        C519   1.376       .  A
C518       C2230   1.473       .  S
C519        H521   1.082       .  S
N522        N523   1.325       .  A
N522        C526   1.349       .  A
N523        C524   1.346       .  A
C524        C525   1.382       .  A
C524        H527   1.083       .  S
C525        C526   1.388       .  A
C525       C2174   1.484       .  S
C526        H528   1.081       .  S
N529        N530   1.321       .  A
N529        C533   1.347       .  A
N529       Cu537   2.081       .  S
N530        C531   1.342       .  A
N530       Cu536   2.059       .  S
C531        C532   1.385       .  A
C531        H534   1.081       .  S
C532        C533   1.386       .  A
C532       C2212   1.480       .  S
C533        H535   1.082       .  S
Cu536       N539   2.059       .  S
Cu537       N547   2.082       .  S
Cu538       N540   2.080       .  S
Cu538       N546   2.081       .  S
N539        N540   1.321       .  A
N539        C543   1.342       .  A
N540        C541   1.347       .  A
C541        C542   1.385       .  A
C541        H544   1.082       .  S
C542        C543   1.384       .  A
C542       C2156   1.478       .  S
C543        H545   1.081       .  S
N546        N547   1.324       .  A
N546        C550   1.347       .  A
N547        C548   1.345       .  A
C548        C549   1.382       .  A
C548        H551   1.082       .  S
C549        C550   1.387       .  A
C549       C2140   1.481       .  S
C550        H552   1.082       .  S
N553        N554   1.323       .  A
N553        C557   1.349       .  A
N553       Cu561   2.094       .  S
N554        C555   1.343       .  A
N554       Cu560   2.068       .  S
C555        C556   1.384       .  A
C555        H558   1.082       .  S
C556        C557   1.387       .  A
C556       C2284   1.482       .  S
C557        H559   1.083       .  S
Cu560       N563   2.067       .  S
Cu561       N571   2.094       .  S
Cu562       N564   2.071       .  S
Cu562       N570   2.072       .  S
N563        N564   1.321       .  A
N563        C567   1.344       .  A
N564        C565   1.345       .  A
C565        C566   1.383       .  A
C565        H568   1.082       .  S
C566        C567   1.386       .  A
C566       C2158   1.477       .  S
C567        H569   1.082       .  S
N570        N571   1.324       .  A
N570        C574   1.344       .  A
N571        C572   1.349       .  A
C572        C573   1.388       .  A
C572        H575   1.081       .  S
C573        C574   1.380       .  A
C573       C2120   1.479       .  S
C574        H576   1.083       .  S
N577        N578   1.322       .  A
N577        C581   1.348       .  A
N577       Cu585   2.088       .  S
N578        C579   1.345       .  A
N578       Cu584   2.070       .  S
C579        C580   1.386       .  A
C579        H582   1.081       .  S
C580        C581   1.387       .  A
C580       C2084   1.484       .  S
C581        H583   1.082       .  S
Cu584       N587   2.070       .  S
Cu585       N595   2.089       .  S
Cu586       N588   2.081       .  S
Cu586       N594   2.082       .  S
N587        N588   1.322       .  A
N587        C591   1.343       .  A
N588        C589   1.348       .  A
C589        C590   1.386       .  A
C589        H592   1.082       .  S
C590        C591   1.380       .  A
C590       C2104   1.475       .  S
C591        H593   1.082       .  S
N594        N595   1.323       .  A
N594        C598   1.347       .  A
N595        C596   1.347       .  A
C596        C597   1.385       .  A
C596        H599   1.082       .  S
C597        C598   1.387       .  A
C597       C2066   1.484       .  S
C598        H600   1.081       .  S
N601        N602   1.322       .  A
N601        C605   1.349       .  A
N601       Cu609   2.089       .  S
N602        C603   1.342       .  A
N602       Cu608   2.062       .  S
C603        C604   1.383       .  A
C603        H606   1.081       .  S
C604        C605   1.387       .  A
C604       C2048   1.480       .  S
C605        H607   1.082       .  S
Cu608       N611   2.062       .  S
Cu609       N619   2.090       .  S
Cu610       N612   2.081       .  S
Cu610       N618   2.082       .  S
N611        N612   1.320       .  A
N611        C615   1.342       .  A
N612        C613   1.348       .  A
C613        C614   1.387       .  A
C613        H616   1.080       .  S
C614        C615   1.386       .  A
C614       C2102   1.483       .  S
C615        H617   1.081       .  S
N618        N619   1.325       .  A
N618        C622   1.344       .  A
N619        C620   1.348       .  A
C620        C621   1.388       .  A
C620        H623   1.082       .  S
C621        C622   1.381       .  A
C621       C2032   1.481       .  S
C622        H624   1.082       .  S
N625        N626   1.322       .  A
N625        C629   1.347       .  A
N625       Cu633   2.084       .  S
N626        C627   1.347       .  A
N626       Cu632   2.080       .  S
C627        C628   1.388       .  A
C627        H630   1.081       .  S
C628        C629   1.385       .  A
C628       C2086   1.484       .  S
C629        H631   1.082       .  S
Cu632       N635   2.080   1_565  S
Cu633       N643   2.084   1_565  S
Cu634       N636   2.086       .  S
Cu634       N642   2.086       .  S
N635        N636   1.323       .  A
N635        C639   1.346       .  A
N636        C637   1.347       .  A
C637        C638   1.385       .  A
C637        H640   1.082       .  S
C638        C639   1.387       .  A
C638       C2012   1.483       .  S
C639        H641   1.081       .  S
N642        N643   1.323       .  A
N642        C646   1.349       .  A
N643        C644   1.346       .  A
C644        C645   1.383       .  A
C644        H647   1.082       .  S
C645        C646   1.387       .  A
C645       C1994   1.481       .  S
C646        H648   1.082       .  S
N649        N650   1.322       .  A
N649        C653   1.347       .  A
N649       Cu657   2.085       .  S
N650        C651   1.346       .  A
N650       Cu656   2.073   1_565  S
C651        C652   1.386       .  A
C651        H654   1.082       .  S
C652        C653   1.385       .  A
C652       C1976   1.481       .  S
C653        H655   1.082       .  S
Cu656       N659   2.073       .  S
Cu657       N667   2.085   1_565  S
Cu658       N660   2.092       .  S
Cu658       N666   2.092       .  S
N659        N660   1.323       .  A
N659        C663   1.344       .  A
N660        C661   1.349       .  A
C661        C662   1.387       .  A
C661        H664   1.082       .  S
C662        C663   1.385       .  A
C662       C2014   1.485       .  S
C663        H665   1.082       .  S
N666        N667   1.324       .  A
N666        C670   1.349       .  A
N667        C668   1.347       .  A
C668        C669   1.383       .  A
C668        H671   1.084       .  S
C669        C670   1.389       .  A
C669       C1958   1.485       .  S
C670        H672   1.080       .  S
N673        N674   1.320       .  A
N673        C677   1.348       .  A
N673       Cu681   2.083       .  S
N674        C675   1.341       .  A
N674       Cu680   2.058       .  S
C675        C676   1.384       .  A
C675        H678   1.082       .  S
C676        C677   1.387       .  A
C676       C1922   1.480       .  S
C677        H679   1.082       .  S
Cu680       N683   2.059       .  S
Cu681       N691   2.085       .  S
Cu682       N684   2.095       .  S
Cu682       N690   2.096       .  S
N683        N684   1.322       .  A
N683        C687   1.341       .  A
N684        C685   1.351       .  A
C685        C686   1.390       .  A
C685        H688   1.082       .  S
C686        C687   1.377       .  A
C686       C1940   1.477       .  S
C687        H689   1.083       .  S
N690        N691   1.325       .  A
N690        C694   1.350       .  A
N691        C692   1.345       .  A
C692        C693   1.381       .  A
C692        H695   1.082       .  S
C693        C694   1.388       .  A
C693       C1904   1.482       .  S
C694        H696   1.081       .  S
N697        N698   1.321       .  A
N697        C701   1.349       .  A
N697       Cu705   2.091       .  S
N698        C699   1.342       .  A
N698       Cu704   2.063       .  S
C699        C700   1.384       .  A
C699        H702   1.082       .  S
C700        C701   1.388       .  A
C700       C1978   1.483       .  S
C701        H703   1.082       .  S
Cu704       N707   2.063       .  S
Cu705       N715   2.092       .  S
Cu706       N708   2.092       .  S
Cu706       N714   2.093       .  S
N707        N708   1.321       .  A
N707        C711   1.343       .  A
N708        C709   1.349       .  A
C709        C710   1.388       .  A
C709        H712   1.082       .  S
C710        C711   1.385       .  A
C710       C1942   1.483       .  S
C711        H713   1.081       .  S
N714        N715   1.325       .  A
N714        C718   1.347       .  A
N715        C716   1.349       .  A
C716        C717   1.388       .  A
C716        H719   1.082       .  S
C717        C718   1.385       .  A
C717       C1886   1.486       .  S
C718        H720   1.081       .  S
N721        N722   1.320       .  A
N721        C725   1.348       .  A
N721       Cu729   2.080       .  S
N722        C723   1.341       .  A
N722       Cu728   2.063       .  S
C723        C724   1.385       .  A
C723        H726   1.082       .  S
C724        C725   1.387       .  A
C724       C2050   1.481       .  S
C725        H727   1.082       .  S
Cu728       N731   2.063       .  S
Cu729       N739   2.081       .  S
Cu730       N732   2.085       .  S
Cu730       N738   2.086       .  S
N731        N732   1.322       .  A
N731        C735   1.342       .  A
N732        C733   1.349       .  A
C733        C734   1.389       .  A
C733        H736   1.082       .  S
C734        C735   1.379       .  A
C734       C1868   1.476       .  S
C735        H737   1.082       .  S
N738        N739   1.325       .  A
N738        C742   1.348       .  A
N739        C740   1.344       .  A
C740        C741   1.381       .  A
C740        H743   1.082       .  S
C741        C742   1.387       .  A
C741       C1850   1.479       .  S
C742        H744   1.082       .  S
N745        N746   1.320       .  A
N745        C749   1.349       .  A
N745       Cu753   2.085       .  S
N746        C747   1.340       .  A
N746       Cu752   2.052       .  S
C747        C748   1.383       .  A
C747        H750   1.082       .  S
C748        C749   1.388       .  A
C748       C1924   1.479       .  S
C749        H751   1.081       .  S
Cu752       N755   2.052       .  S
Cu753       N763   2.087       .  S
Cu754       N756   2.097       .  S
Cu754       N762   2.099       .  S
N755        N756   1.321       .  A
N755        C759   1.340       .  A
N756        C757   1.351       .  A
C757        C758   1.392       .  A
C757        H760   1.082       .  S
C758        C759   1.377       .  A
C758       C1870   1.478       .  S
C759        H761   1.082       .  S
N762        N763   1.326       .  A
N762        C766   1.348       .  A
N763        C764   1.347       .  A
C764        C765   1.385       .  A
C764        H767   1.081       .  S
C765        C766   1.385       .  A
C765       C1832   1.484       .  S
C766        H768   1.083       .  S
C769        N770   1.362       .  A
C769        N774   1.359       .  A
C769       C1814   1.483       .  S
N770        C771   1.362       .  A
C771        N772   1.360   1_565  A
C771       C2426   1.482   1_565  S
N772        C773   1.356   1_545  A
C773        N774   1.360       .  A
C773       C1852   1.480   1_565  S
C775        N776   1.364       .  A
C775        N780   1.361       .  A
C775       C2194   1.484       .  S
N776        C777   1.361       .  A
C777        N778   1.359       .  A
C777       C1996   1.484       .  S
N778        C779   1.357       .  A
C779        N780   1.360       .  A
C779       C2408   1.480       .  S
N781        N782   1.321       .  A
N781        C785   1.350       .  A
N781       Cu789   2.090       .  S
N782        C783   1.341       .  A
N782       Cu788   2.059       .  S
C783        C784   1.384       .  A
C783        H786   1.081       .  S
C784        C785   1.388       .  A
C784       C1778   1.483       .  S
C785        H787   1.082       .  S
Cu788       N791   2.059       .  S
Cu789       N799   2.091       .  S
Cu790       N792   2.086       .  S
Cu790       N798   2.087       .  S
N791        N792   1.321       .  A
N791        C795   1.342       .  A
N792        C793   1.349       .  A
C793        C794   1.390       .  A
C793        H796   1.082       .  S
C794        C795   1.379       .  A
C794       C1796   1.478       .  S
C795        H797   1.081       .  S
N798        N799   1.325       .  A
N798        C802   1.346       .  A
N799        C800   1.347       .  A
C800        C801   1.388       .  A
C800        H803   1.081       .  S
C801        C802   1.383       .  A
C801       C1760   1.485       .  S
C802        H804   1.083       .  S
N805        N806   1.320       .  A
N805        C809   1.349       .  A
N805       Cu813   2.089       .  S
N806        C807   1.343       .  A
N806       Cu812   2.058       .  S
C807        C808   1.385       .  A
C807        H810   1.081       .  S
C808        C809   1.388       .  A
C808       C1742   1.482       .  S
C809        H811   1.082       .  S
Cu812       N815   2.058       .  S
Cu813       N823   2.091       .  S
Cu814       N816   2.101       .  S
Cu814       N822   2.103       .  S
N815        N816   1.322       .  A
N815        C819   1.340       .  A
N816        C817   1.352       .  A
C817        C818   1.392       .  A
C817        H820   1.081       .  S
C818        C819   1.377       .  A
C818       C1798   1.478       .  S
C819        H821   1.082       .  S
N822        N823   1.325       .  A
N822        C826   1.351       .  A
N823        C824   1.346       .  A
C824        C825   1.383       .  A
C824        H827   1.081       .  S
C825        C826   1.390       .  A
C825       C1724   1.488       .  S
C826        H828   1.082       .  S
N829        N830   1.322       .  A
N829        C833   1.348       .  A
N829       Cu837   2.090       .  S
N830        C831   1.343       .  A
N830       Cu836   2.064       .  S
C831        C832   1.384       .  A
C831        H834   1.082       .  S
C832        C833   1.386       .  A
C832       C1780   1.480       .  S
C833        H835   1.082       .  S
Cu836       N839   2.064       .  S
Cu837       N847   2.091       .  S
Cu838       N840   2.088       .  S
Cu838       N846   2.088       .  S
N839        N840   1.322       .  A
N839        C843   1.344       .  A
N840        C841   1.347       .  A
C841        C842   1.386       .  A
C841        H844   1.081       .  S
C842        C843   1.384       .  A
C842       C1706   1.481       .  S
C843        H845   1.082       .  S
N846        N847   1.324       .  A
N846        C850   1.348       .  A
N847        C848   1.347       .  A
C848        C849   1.384       .  A
C848        H851   1.083       .  S
C849        C850   1.388       .  A
C849       C1688   1.485       .  S
C850        H852   1.082       .  S
N853        N854   1.321       .  A
N853        C857   1.348       .  A
N853       Cu861   2.088       .  S
N854        C855   1.344       .  A
N854       Cu860   2.067       .  S
C855        C856   1.386       .  A
C855        H858   1.081       .  S
C856        C857   1.387       .  A
C856       C1670   1.484       .  S
C857        H859   1.083       .  S
Cu860       N863   2.067       .  S
Cu861       N871   2.089       .  S
Cu862       N864   2.090       .  S
Cu862       N870   2.091       .  S
N863        N864   1.322       .  A
N863        C867   1.343       .  A
N864        C865   1.349       .  A
C865        C866   1.387       .  A
C865        H868   1.082       .  S
C866        C867   1.385       .  A
C866       C1708   1.484       .  S
C867        H869   1.081       .  S
N870        N871   1.325       .  A
N870        C874   1.348   1_556  A
N871        C872   1.346       .  A
C872        C873   1.383   1_556  A
C872        H875   1.082       .  S
C873        C874   1.388       .  A
C873       C1816   1.485       .  S
C874        H876   1.082       .  S
N877        N878   1.320       .  A
N877        C881   1.348       .  A
N877       Cu885   2.086       .  S
N878        C879   1.342       .  A
N878       Cu884   2.060       .  S
C879        C880   1.385       .  A
C879        H882   1.081       .  S
C880        C881   1.387       .  A
C880       C1744   1.482       .  S
C881        H883   1.082       .  S
Cu884       N887   2.059       .  S
Cu885       N895   2.088       .  S
Cu886       N888   2.085       .  S
Cu886       N894   2.086       .  S
N887        N888   1.321       .  A
N887        C891   1.341       .  A
N888        C889   1.348       .  A
C889        C890   1.387       .  A
C889        H892   1.082       .  S
C890        C891   1.383       .  A
C890       C1652   1.480       .  S
C891        H893   1.081       .  S
N894        N895   1.325       .  A
N894        C898   1.347       .  A
N895        C896   1.346       .  A
C896        C897   1.383       .  A
C896        H899   1.082       .  S
C897        C898   1.387       .  A
C897       C1636   1.483       .  S
C898        H900   1.082       .  S
N901        N902   1.321       .  A
N901        C905   1.352       .  A
N901       Cu909   2.099       .  S
N902        C903   1.340       .  A
N902       Cu908   2.053       .  S
C903        C904   1.377       .  A
C903        H906   1.082       .  S
C904        C905   1.393       .  A
C904       C1616   1.479       .  S
C905        H907   1.082       .  S
Cu908       N911   2.053       .  S
Cu909       N919   2.102       .  S
Cu910       N912   2.082       .  S
Cu910       N918   2.084       .  S
N911        N912   1.320       .  A
N911        C915   1.341       .  A
N912        C913   1.348       .  A
C913        C914   1.387       .  A
C913        H916   1.082       .  S
C914        C915   1.383       .  A
C914       C1654   1.479       .  S
C915        H917   1.081       .  S
N918        N919   1.326       .  A
N918        C922   1.347       .  A
N919        C920   1.348       .  A
C920        C921   1.386       .  A
C920        H923   1.082       .  S
C921        C922   1.386       .  A
C921       C1598   1.486       .  S
C922        H924   1.082       .  S
N925        N926   1.321       .  A
N925        C929   1.351       .  A
N925       Cu933   2.100       .  S
N926        C927   1.343       .  A
N926       Cu932   2.059       .  S
C927        C928   1.384       .  A
C927        H930   1.082       .  S
C928        C929   1.390       .  A
C928       C1672   1.484       .  S
C929        H931   1.082       .  S
Cu932       N935   2.060       .  S
Cu933       N943   2.101       .  S
Cu934       N936   2.088       .  S
Cu934       N942   2.089       .  S
N935        N936   1.321       .  A
N935        C939   1.340       .  A
N936        C937   1.351       .  A
C937        C938   1.390       .  A
C937        H940   1.082       .  S
C938        C939   1.378       .  A
C938       C1582   1.476       .  S
C939        H941   1.081       .  S
N942        N943   1.326       .  A
N942        C946   1.348       .  A
N943        C944   1.348       .  A
C944        C945   1.386       .  A
C944        H947   1.082       .  S
C945        C946   1.387       .  A
C945       C1562   1.487       .  S
C946        H948   1.082       .  S
N949        N950   1.320       .  A
N949        C953   1.352       .  A
N949       Cu957   2.093       .  S
N950        C951   1.339       .  A
N950       Cu956   2.050       .  S
C951        C952   1.377       .  A
C951        H954   1.082       .  S
C952        C953   1.392       .  A
C952       C1618   1.477       .  S
C953        H955   1.082       .  S
Cu956       N959   2.050       .  S
Cu957       N967   2.096       .  S
Cu958       N960   2.098       .  S
Cu958       N966   2.101       .  S
N959        N960   1.321       .  A
N959        C963   1.339       .  A
N960        C961   1.352       .  A
C961        C962   1.393       .  A
C961        H964   1.082       .  S
C962        C963   1.376       .  A
C962       C1580   1.477       .  S
C963        H965   1.082       .  S
N966        N967   1.327       .  A
N966        C970   1.349       .  A
N967        C968   1.347       .  A
C968        C969   1.383       .  A
C968        H971   1.082       .  S
C969        C970   1.388       .  A
C969       C1544   1.487       .  S
C970        H972   1.082       .  S
C973        N974   1.361       .  A
C973        N978   1.357       .  A
C973       C1528   1.480       .  S
N974        C975   1.363       .  A
C975        N976   1.361       .  A
C975       C1634   1.481   1_556  S
N976        C977   1.360       .  A
C977        N978   1.357       .  A
C977       C2932   1.481       .  S
C979        N980   1.360       .  A
C979        N984   1.361       .  A
C979       C2608   1.486       .  S
N980        C981   1.358       .  A
C981        N982   1.361       .  A
C981       C2896   1.482       .  S
N982        C983   1.361       .  A
C983        N984   1.363       .  A
C983       C1690   1.485       .  S
N985        N986   1.322       .  A
N985        C989   1.352       .  A
N985       Cu993   2.094       .  S
N986        C987   1.341       .  A
N986       Cu992   2.060       .  S
C987        C988   1.377       .  A
C987        H990   1.083       .  S
C988        C989   1.390       .  A
C988       C1490   1.475       .  S
C989        H991   1.081       .  S
Cu992       N995   2.059       .  S
Cu993      N1003   2.096       .  S
Cu994       N996   2.076       .  S
Cu994      N1002   2.078       .  S
N995        N996   1.319       .  A
N995        C999   1.340       .  A
N996        C997   1.349       .  A
C997        C998   1.387       .  A
C997       H1000   1.082       .  S
C998        C999   1.386       .  A
C998       C1508   1.482       .  S
C999       H1001   1.081       .  S
N1002      N1003   1.325       .  A
N1002      C1006   1.344       .  A
N1003      C1004   1.349       .  A
C1004      C1005   1.386       .  A
C1004      H1007   1.083       .  S
C1005      C1006   1.386       .  A
C1005      C1472   1.485       .  S
C1006      H1008   1.081       .  S
N1009      N1010   1.322       .  A
N1009      C1013   1.349       .  A
N1009     Cu1017   2.096       .  S
N1010      C1011   1.341       .  A
N1010     Cu1016   2.059       .  S
C1011      C1012   1.382       .  A
C1011      H1014   1.082       .  S
C1012      C1013   1.388       .  A
C1012      C1454   1.481       .  S
C1013      H1015   1.082       .  S
Cu1016     N1019   2.059       .  S
Cu1017     N1027   2.096       .  S
Cu1018     N1020   2.081       .  S
Cu1018     N1026   2.083       .  S
N1019      N1020   1.320       .  A
N1019      C1023   1.344       .  A
N1020      C1021   1.345       .  A
C1021      C1022   1.385       .  A
C1021      H1024   1.082       .  S
C1022      C1023   1.384       .  A
C1022      C1510   1.477       .  S
C1023      H1025   1.082       .  S
N1026      N1027   1.324       .  A
N1026      C1030   1.345       .  A
N1027      C1028   1.350       .  A
C1028      C1029   1.389       .  A
C1028      H1031   1.082       .  S
C1029      C1030   1.382       .  A
C1029      C1438   1.484       .  S
C1030      H1032   1.082       .  S
N1033      N1034   1.320       .  A
N1033      C1037   1.352       .  A
N1033     Cu1041   2.103       .  S
N1034      C1035   1.340       .  A
N1034     Cu1040   2.052       .  S
C1035      C1036   1.384       .  A
C1035      H1038   1.080       .  S
C1036      C1037   1.392       .  A
C1036      C1492   1.488       .  S
C1037      H1039   1.082       .  S
Cu1040     N1043   2.053       .  S
Cu1041     N1051   2.105       .  S
Cu1042     N1044   2.093       .  S
Cu1042     N1050   2.095       .  S
N1043      N1044   1.320       .  A
N1043      C1047   1.340       .  A
N1044      C1045   1.351       .  A
C1045      C1046   1.390       .  A
C1045      H1048   1.081       .  S
C1046      C1047   1.384       .  A
C1046      C1420   1.486       .  S
C1047      H1049   1.081       .  S
N1050      N1051   1.326       .  A
N1050      C1054   1.348       .  A
N1051      C1052   1.349       .  A
C1052      C1053   1.387       .  A
C1052      H1055   1.081       .  S
C1053      C1054   1.387       .  A
C1053      C1402   1.490       .  S
C1054      H1056   1.082       .  S
N1057      N1058   1.320       .  A
N1057      C1061   1.349       .  A
N1057     Cu1065   2.086       .  S
N1058      C1059   1.342       .  A
N1058     Cu1064   2.060       .  S
C1059      C1060   1.384       .  A
C1059      H1062   1.081       .  S
C1060      C1061   1.388       .  A
C1060      C1382   1.482       .  S
C1061      H1063   1.082       .  S
Cu1064     N1067   2.060       .  S
Cu1065     N1075   2.088       .  S
Cu1066     N1068   2.091       .  S
Cu1066     N1074   2.093       .  S
N1067      N1068   1.322       .  A
N1067      C1071   1.340       .  A
N1068      C1069   1.351       .  A
C1069      C1070   1.389       .  A
C1069      H1072   1.082       .  S
C1070      C1071   1.377       .  A
C1070      C1418   1.473       .  S
C1071      H1073   1.082       .  S
N1074      N1075   1.325       .  A
N1074      C1078   1.348       .  A
N1075      C1076   1.346       .  A
C1076      C1077   1.382       .  A
C1076      H1079   1.083       .  S
C1077      C1078   1.388       .  A
C1077      C1526   1.483       .  S
C1078      H1080   1.081   1_655  S
N1081      N1082   1.321       .  A
N1081      C1085   1.349       .  A
N1081     Cu1089   2.089       .  S
N1082      C1083   1.342       .  A
N1082     Cu1088   2.063       .  S
C1083      C1084   1.384       .  A
C1083      H1086   1.081       .  S
C1084      C1085   1.387       .  A
C1084      C1456   1.482       .  S
C1085      H1087   1.082       .  S
Cu1088     N1091   2.063       .  S
Cu1089     N1099   2.090       .  S
Cu1090     N1092   2.083       .  S
Cu1090     N1098   2.085       .  S
N1091      N1092   1.321       .  A
N1091      C1095   1.342       .  A
N1092      C1093   1.349   1_565  A
C1093      C1094   1.389       .  A
C1093      H1096   1.083       .  S
C1094      C1095   1.380   1_545  A
C1094      C1364   1.477       .  S
C1095      H1097   1.082       .  S
N1098      N1099   1.325       .  A
N1098      C1102   1.345   1_565  A
N1099      C1100   1.349       .  A
C1100      C1101   1.387   1_565  A
C1100      H1103   1.082       .  S
C1101      C1102   1.382       .  A
C1101      C1346   1.482       .  S
C1102      H1104   1.082       .  S
N1105      N1106   1.321       .  A
N1105      C1109   1.348       .  A
N1105     Cu1113   2.089       .  S
N1106      C1107   1.344       .  A
N1106     Cu1112   2.065       .  S
C1107      C1108   1.386       .  A
C1107      H1110   1.081       .  S
C1108      C1109   1.387       .  A
C1108      C1330   1.483       .  S
C1109      H1111   1.082       .  S
Cu1112     N1115   2.065       .  S
Cu1113     N1123   2.090       .  S
Cu1114     N1116   2.088       .  S
Cu1114     N1122   2.089       .  S
N1115      N1116   1.322       .  A
N1115      C1119   1.343       .  A
N1116      C1117   1.348       .  A
C1117      C1118   1.386       .  A
C1117      H1120   1.081       .  S
C1118      C1119   1.383       .  A
C1118      C1366   1.480       .  S
C1119      H1121   1.082       .  S
N1122      N1123   1.324       .  A
N1122      C1126   1.349       .  A
N1123      C1124   1.346       .  A
C1124      C1125   1.384       .  A
C1124      H1127   1.082       .  S
C1125      C1126   1.388       .  A
C1125      C1312   1.486       .  S
C1126      H1128   1.082       .  S
N1129      N1130   1.321       .  A
N1129      C1133   1.347       .  A
N1129     Cu1137   2.083       .  S
N1130      C1131   1.345       .  A
N1130     Cu1136   2.072       .  S
C1131      C1132   1.387       .  A
C1131      H1134   1.081       .  S
C1132      C1133   1.386       .  A
C1132      C1328   1.483       .  S
C1133      H1135   1.082       .  S
Cu1136     N1139   2.072       .  S
Cu1137     N1147   2.083       .  S
Cu1138     N1140   2.085       .  S
Cu1138     N1146   2.085       .  S
N1139      N1140   1.323       .  A
N1139      C1143   1.345       .  A
N1140      C1141   1.346       .  A
C1141      C1142   1.385       .  A
C1141      H1144   1.082       .  S
C1142      C1143   1.385       .  A
C1142      C1292   1.481       .  S
C1143      H1145   1.081       .  S
N1146      N1147   1.323       .  A
N1146      C1150   1.348       .  A
N1147      C1148   1.345       .  A
C1148      C1149   1.382       .  A
C1148      H1151   1.082       .  S
C1149      C1150   1.387       .  A
C1149      C1276   1.481       .  S
C1150      H1152   1.082       .  S
N1153      N1154   1.321       .  A
N1153      C1157   1.348       .  A
N1153     Cu1161   2.088       .  S
N1154      C1155   1.344       .  A
N1154     Cu1160   2.065       .  S
C1155      C1156   1.385       .  A
C1155      H1158   1.081       .  S
C1156      C1157   1.386       .  A
C1156      C1384   1.482       .  S
C1157      H1159   1.082       .  S
Cu1160     N1163   2.065       .  S
Cu1161     N1171   2.089       .  S
Cu1162     N1164   2.085       .  S
Cu1162     N1170   2.086       .  S
N1163      N1164   1.321       .  A
N1163      C1167   1.342       .  A
N1164      C1165   1.349       .  A
C1165      C1166   1.387       .  A
C1165      H1168   1.082       .  S
C1166      C1167   1.385       .  A
C1166      C1294   1.482       .  S
C1167      H1169   1.081       .  S
N1170      N1171   1.324       .  A
N1170      C1174   1.346       .  A
N1171      C1172   1.348       .  A
C1172      C1173   1.384       .  A
C1172      H1175   1.083       .  S
C1173      C1174   1.388       .  A
C1173      C1256   1.485       .  S
C1174      H1176   1.080       .  S
C1177      N1178   1.361       .  A
C1177      N1182   1.360       .  A
C1177      C1960   1.483       .  S
N1178      C1179   1.361       .  A
C1179      N1180   1.362       .  A
C1179      C1348   1.485       .  S
N1180      C1181   1.360       .  A
C1181      N1182   1.361       .  A
C1181      C2264   1.486       .  S
C1183      N1184   1.363       .  A
C1183      N1188   1.361       .  A
C1183      C2752   1.486       .  S
N1184      C1185   1.362       .  A
C1185      N1186   1.363       .  A
C1185      C2248   1.489       .  S
N1186      C1187   1.361       .  A
C1187      N1188   1.361       .  A
C1187      C1400   1.488       .  S
C1189      N1190   1.362   1_565  A
C1189      N1194   1.361       .  A
C1189      C1310   1.486       .  S
N1190      C1191   1.360   1_545  A
C1191      N1192   1.361       .  A
C1191      C1834   1.485   1_565  S
N1192      C1193   1.360       .  A
C1193      N1194   1.362       .  A
C1193      C1600   1.484       .  S
C1195      N1196   1.359       .  A
C1195      N1200   1.363       .  A
C1195      C1762   1.480       .  S
N1196      C1197   1.357       .  A
C1197      N1198   1.358       .  A
C1197      C2068   1.482       .  S
N1198      C1199   1.360       .  A
C1199      N1200   1.364       .  A
C1199      C1474   1.480       .  S
C1201      N1202   1.360       .  A
C1201      N1206   1.365       .  A
C1201      C1436   1.486       .  S
N1202      C1203   1.358       .  A
C1203      N1204   1.359       .  A
C1203      C1564   1.486       .  S
N1204      C1205   1.361       .  A
C1205      N1206   1.365       .  A
C1205      C2716   1.486       .  S
C1207      N1208   1.365       .  A
C1207      N1212   1.361       .  A
C1207      C2356   1.483       .  S
N1208      C1209   1.363       .  A
C1209      N1210   1.357       .  A
C1209      C1258   1.480       .  S
N1210      C1211   1.356       .  A
C1211      N1212   1.359       .  A
C1211      C2030   1.480       .  S
C1213      N1214   1.357       .  A
C1213      N1218   1.360       .  A
C1213      C2572   1.486       .  S
N1214      C1215   1.359       .  A
C1215      N1216   1.365       .  A
C1215      C1888   1.484       .  S
N1216      C1217   1.366       .  A
C1217      N1218   1.363       .  A
C1217      C1726   1.488       .  S
C1219      N1220   1.362       .  A
C1219      N1224   1.360       .  A
C1219      C1906   1.485       .  S
N1220      C1221   1.361       .  A
C1221      N1222   1.361       .  A
C1221      C2320   1.485       .  S
N1222      C1223   1.359       .  A
C1223      N1224   1.361       .  A
C1223      C2464   1.483       .  S
C1225      N1226   1.360       .  A
C1225      N1230   1.358       .  A
C1225      C1274   1.482       .  S
N1226      C1227   1.359       .  A
C1227      N1228   1.362       .  A
C1227      C2138   1.481       .  S
N1228      C1229   1.360       .  A
C1229      N1230   1.361       .  A
C1229      C2698   1.483       .  S
C1231      N1232   1.365       .  A
C1231      N1236   1.360       .  A
C1231      C1546   1.484       .  S
N1232      C1233   1.365       .  A
C1233      N1234   1.360       .  A
C1233      C2842   1.482       .  S
N1234      C1235   1.358       .  A
C1235      N1236   1.357       .  A
C1235      C2534   1.486       .  S
C1237      N1238   1.362       .  A
C1237      N1242   1.362       .  A
C1237      C2768   1.487       .  S
N1238      C1239   1.363       .  A
C1239      N1240   1.359       .  A
C1239      C2176   1.483       .  S
N1240      C1241   1.360       .  A
C1241      N1242   1.360       .  A
C1241      C2644   1.484       .  S
C1243      N1244   1.360       .  A
C1243      N1248   1.356       .  A
C1243      C2482   1.481       .  S
N1244      C1245   1.361       .  A
C1245      N1246   1.363       .  A
C1245      C2824   1.481       .  S
N1246      C1247   1.362       .  A
C1247      N1248   1.357       .  A
C1247      C2122   1.479       .  S
C1249      C1250   1.405       .  A
C1249      C1254   1.408       .  A
C1249      C1257   1.493       .  S
C1250      C1251   1.404       .  A
C1250      H1259   1.084       .  S
C1251      C1252   1.409       .  A
C1251      H1260   1.081       .  S
C1252      C1253   1.403       .  A
C1252      C1255   1.490       .  S
C1253      C1254   1.397       .  A
C1253      H1261   1.085       .  S
C1254      H1262   1.080       .  S
C1255      H1263   1.087       .  S
C1255      C1256   1.347       .  D
C1256      H1264   1.086       .  S
C1257      H1265   1.087       .  S
C1257      C1258   1.347       .  D
C1258      H1266   1.085       .  S
C1267      C1268   1.403       .  A
C1267      C1272   1.407       .  A
C1267      C1275   1.489       .  S
C1268      C1269   1.400       .  A
C1268      H1277   1.083       .  S
C1269      C1270   1.409       .  A
C1269      H1278   1.081       .  S
C1270      C1271   1.405       .  A
C1270      C1273   1.492       .  S
C1271      C1272   1.400       .  A
C1271      H1279   1.083       .  S
C1272      H1280   1.082       .  S
C1273      H1281   1.087       .  S
C1273      C1274   1.348       .  D
C1274      H1282   1.084       .  S
C1275      H1283   1.086       .  S
C1275      C1276   1.346       .  D
C1276      H1284   1.086       .  S
C1285      C1286   1.403   1_655  A
C1285      C1290   1.406       .  A
C1285      C1293   1.486       .  S
C1286      C1287   1.398       .  A
C1286      H1295   1.083       .  S
C1287      C1288   1.408       .  A
C1287      H1296   1.080       .  S
C1288      C1289   1.406       .  A
C1288      C1291   1.492       .  S
C1289      C1290   1.401   1_455  A
C1289      H1297   1.083       .  S
C1290      H1298   1.082       .  S
C1291      H1299   1.085       .  S
C1291      C1292   1.349       .  D
C1292      H1300   1.082       .  S
C1293      H1301   1.085       .  S
C1293      C1294   1.347       .  D
C1294      H1302   1.084       .  S
C1303      C1304   1.406   1_455  A
C1303      C1308   1.409   1_455  A
C1303      C1311   1.497       .  S
C1304      C1305   1.403       .  A
C1304      H1313   1.083   1_655  S
C1305      C1306   1.408       .  A
C1305      H1314   1.082   1_545  S
C1306      C1307   1.404       .  A
C1306      C1309   1.493       .  S
C1307      C1308   1.401       .  A
C1307      H1315   1.083       .  S
C1308      H1316   1.080       .  S
C1309      H1317   1.087       .  S
C1309      C1310   1.349   1_545  D
C1310      H1318   1.085       .  S
C1311      H1319   1.085       .  S
C1311      C1312   1.350       .  D
C1312      H1320   1.083       .  S
C1321      C1322   1.405       .  A
C1321      C1326   1.407       .  A
C1321      C1329   1.491       .  S
C1322      C1323   1.401       .  A
C1322      H1331   1.083       .  S
C1323      C1324   1.409       .  A
C1323      H1332   1.080       .  S
C1324      C1325   1.405       .  A
C1324      C1327   1.493       .  S
C1325      C1326   1.400       .  A
C1325      H1333   1.083       .  S
C1326      H1334   1.081       .  S
C1327      H1335   1.085       .  S
C1327      C1328   1.349       .  D
C1328      H1336   1.083       .  S
C1329      H1337   1.085       .  S
C1329      C1330   1.349       .  D
C1330      H1338   1.084       .  S
C1339      C1340   1.405   1_655  A
C1339      C1344   1.409       .  A
C1339      C1347   1.494       .  S
C1340      C1341   1.400       .  A
C1340      H1349   1.083       .  S
C1341      C1342   1.407       .  A
C1341      H1350   1.082       .  S
C1342      C1343   1.404   1_455  A
C1342      C1345   1.490       .  S
C1343      C1344   1.402       .  A
C1343      H1351   1.084   1_545  S
C1344      H1352   1.080       .  S
C1345      H1353   1.086   1_545  S
C1345      C1346   1.347       .  D
C1346      H1354   1.086       .  S
C1347      H1355   1.087   1_655  S
C1347      C1348   1.350       .  D
C1348      H1356   1.084       .  S
C1357      C1358   1.403       .  A
C1357      C1362   1.407       .  A
C1357      C1365   1.484       .  S
C1358      C1359   1.398       .  A
C1358      H1367   1.083       .  S
C1359      C1360   1.407       .  A
C1359      H1368   1.083       .  S
C1360      C1361   1.404       .  A
C1360      C1363   1.487       .  S
C1361      C1362   1.401       .  A
C1361      H1369   1.082       .  S
C1362      H1370   1.083       .  S
C1363      H1371   1.085       .  S
C1363      C1364   1.345       .  D
C1364      H1372   1.085       .  S
C1365      H1373   1.085       .  S
C1365      C1366   1.347       .  D
C1366      H1374   1.085       .  S
C1375      C1376   1.405       .  A
C1375      C1380   1.408       .  A
C1375      C1383   1.490       .  S
C1376      C1377   1.399       .  A
C1376      H1385   1.084       .  S
C1377      C1378   1.406       .  A
C1377      H1386   1.081       .  S
C1378      C1379   1.405       .  A
C1378      C1381   1.488       .  S
C1379      C1380   1.400       .  A
C1379      H1387   1.083       .  S
C1380      H1388   1.081       .  S
C1381      H1389   1.085       .  S
C1381      C1382   1.349       .  D
C1382      H1390   1.084       .  S
C1383      H1391   1.086       .  S
C1383      C1384   1.348       .  D
C1384      H1392   1.085       .  S
C1393      C1394   1.406       .  A
C1393      C1398   1.409       .  A
C1393      C1401   1.498   1_455  S
C1394      C1395   1.402       .  A
C1394      H1403   1.083       .  S
C1395      C1396   1.407       .  A
C1395      H1404   1.082       .  S
C1396      C1397   1.406       .  A
C1396      C1399   1.496       .  S
C1397      C1398   1.404       .  A
C1397      H1405   1.083       .  S
C1398      H1406   1.081       .  S
C1399      H1407   1.086       .  S
C1399      C1400   1.351       .  D
C1400      H1408   1.085       .  S
C1401      H1409   1.085   1_655  S
C1401      C1402   1.351       .  D
C1402      H1410   1.084       .  S
C1411      C1412   1.404       .  A
C1411      C1416   1.409       .  A
C1411      C1419   1.488       .  S
C1412      C1413   1.395       .  A
C1412      H1421   1.084       .  S
C1413      C1414   1.404       .  A
C1413      H1422   1.082       .  S
C1414      C1415   1.404   1_655  A
C1414      C1417   1.485       .  S
C1415      C1416   1.405   1_455  A
C1415      H1423   1.084       .  S
C1416      H1424   1.081   1_655  S
C1417      H1425   1.087   1_655  S
C1417      C1418   1.344       .  D
C1418      H1426   1.087       .  S
C1419      H1427   1.085       .  S
C1419      C1420   1.349       .  D
C1420      H1428   1.084       .  S
C1429      C1430   1.404       .  A
C1429      C1434   1.408       .  A
C1429      C1437   1.493       .  S
C1430      C1431   1.402       .  A
C1430      H1439   1.083       .  S
C1431      C1432   1.410       .  A
C1431      H1440   1.081       .  S
C1432      C1433   1.406       .  A
C1432      C1435   1.498       .  S
C1433      C1434   1.403       .  A
C1433      H1441   1.083       .  S
C1434      H1442   1.082       .  S
C1435      H1443   1.086       .  S
C1435      C1436   1.349       .  D
C1436      H1444   1.084       .  S
C1437      H1445   1.086       .  S
C1437      C1438   1.347       .  D
C1438      H1446   1.085       .  S
C1447      C1448   1.404       .  A
C1447      C1452   1.407       .  A
C1447      C1455   1.488       .  S
C1448      C1449   1.399       .  A
C1448      H1457   1.083       .  S
C1449      C1450   1.407       .  A
C1449      H1458   1.081       .  S
C1450      C1451   1.405       .  A
C1450      C1453   1.488       .  S
C1451      C1452   1.400       .  A
C1451      H1459   1.083       .  S
C1452      H1460   1.082       .  S
C1453      H1461   1.085       .  S
C1453      C1454   1.349       .  D
C1454      H1462   1.084       .  S
C1455      H1463   1.086       .  S
C1455      C1456   1.348       .  D
C1456      H1464   1.084       .  S
C1465      C1466   1.405       .  A
C1465      C1470   1.407       .  A
C1465      C1473   1.491       .  S
C1466      C1467   1.404       .  A
C1466      H1475   1.083       .  S
C1467      C1468   1.409       .  A
C1467      H1476   1.081       .  S
C1468      C1469   1.404       .  A
C1468      C1471   1.490       .  S
C1469      C1470   1.397       .  A
C1469      H1477   1.084       .  S
C1470      H1478   1.081       .  S
C1471      H1479   1.086       .  S
C1471      C1472   1.348       .  D
C1472      H1480   1.085       .  S
C1473      H1481   1.087       .  S
C1473      C1474   1.347       .  D
C1474      H1482   1.085       .  S
C1483      C1484   1.405       .  A
C1483      C1488   1.409       .  A
C1483      C1491   1.489       .  S
C1484      C1485   1.395       .  A
C1484      H1493   1.084       .  S
C1485      C1486   1.404       .  A
C1485      H1494   1.083       .  S
C1486      C1487   1.404       .  A
C1486      C1489   1.486       .  S
C1487      C1488   1.405       .  A
C1487      H1495   1.084       .  S
C1488      H1496   1.081       .  S
C1489      H1497   1.087       .  S
C1489      C1490   1.344       .  D
C1490      H1498   1.087       .  S
C1491      H1499   1.085       .  S
C1491      C1492   1.351       .  D
C1492      H1500   1.085       .  S
C1501      C1502   1.406   1_455  A
C1501      C1506   1.407       .  A
C1501      C1509   1.490       .  S
C1502      C1503   1.402       .  A
C1502      H1511   1.084       .  S
C1503      C1504   1.408       .  A
C1503      H1512   1.081       .  S
C1504      C1505   1.403       .  A
C1504      C1507   1.487       .  S
C1505      C1506   1.394   1_655  A
C1505      H1513   1.084       .  S
C1506      H1514   1.080       .  S
C1507      H1515   1.085       .  S
C1507      C1508   1.347       .  D
C1508      H1516   1.084       .  S
C1509      H1517   1.086       .  S
C1509      C1510   1.348       .  D
C1510      H1518   1.083       .  S
C1519      C1520   1.404       .  A
C1519      C1524   1.407       .  A
C1519      C1527   1.489       .  S
C1520      C1521   1.403       .  A
C1520      H1529   1.084   1_455  S
C1521      C1522   1.408       .  A
C1521      H1530   1.082   1_455  S
C1522      C1523   1.402       .  A
C1522      C1525   1.487       .  S
C1523      C1524   1.399       .  A
C1523      H1531   1.084       .  S
C1524      H1532   1.082       .  S
C1525      H1533   1.087       .  S
C1525      C1526   1.345   1_455  D
C1526      H1534   1.087       .  S
C1527      H1535   1.087       .  S
C1527      C1528   1.347       .  D
C1528      H1536   1.086       .  S
C1537      C1538   1.406       .  A
C1537      C1542   1.408       .  A
C1537      C1545   1.496       .  S
C1538      C1539   1.405       .  A
C1538      H1547   1.083       .  S
C1539      C1540   1.409       .  A
C1539      H1548   1.082       .  S
C1540      C1541   1.404       .  A
C1540      C1543   1.494       .  S
C1541      C1542   1.400       .  A
C1541      H1549   1.083       .  S
C1542      H1550   1.082       .  S
C1543      H1551   1.085       .  S
C1543      C1544   1.348       .  D
C1544      H1552   1.084       .  S
C1545      H1553   1.086       .  S
C1545      C1546   1.349       .  D
C1546      H1554   1.085       .  S
C1555      C1556   1.405       .  A
C1555      C1560   1.407       .  A
C1555      C1563   1.493       .  S
C1556      C1557   1.402       .  A
C1556      H1565   1.083       .  S
C1557      C1558   1.408       .  A
C1557      H1566   1.082       .  S
C1558      C1559   1.406       .  A
C1558      C1561   1.496       .  S
C1559      C1560   1.403       .  A
C1559      H1567   1.083       .  S
C1560      H1568   1.083       .  S
C1561      H1569   1.085       .  S
C1561      C1562   1.351       .  D
C1562      H1570   1.084       .  S
C1563      H1571   1.086       .  S
C1563      C1564   1.350       .  D
C1564      H1572   1.085       .  S
C1573      C1574   1.403       .  A
C1573      C1578   1.408   1_556  A
C1573      C1581   1.488       .  S
C1574      C1575   1.401   1_556  A
C1574      H1583   1.082       .  S
C1575      C1576   1.409       .  A
C1575      H1584   1.083       .  S
C1576      C1577   1.401       .  A
C1576      C1579   1.488       .  S
C1577      C1578   1.398       .  A
C1577      H1585   1.082       .  S
C1578      H1586   1.083       .  S
C1579      H1587   1.085       .  S
C1579      C1580   1.343       .  D
C1580      H1588   1.085       .  S
C1581      H1589   1.084       .  S
C1581      C1582   1.345       .  D
C1582      H1590   1.084       .  S
C1591      C1592   1.404   1_655  A
C1591      C1596   1.407       .  A
C1591      C1599   1.492       .  S
C1592      C1593   1.402   1_556  A
C1592      H1601   1.083       .  S
C1593      C1594   1.409       .  A
C1593      H1602   1.081       .  S
C1594      C1595   1.407   1_455  A
C1594      C1597   1.496       .  S
C1595      C1596   1.402   1_554  A
C1595      H1603   1.083       .  S
C1596      H1604   1.082       .  S
C1597      H1605   1.085       .  S
C1597      C1598   1.351       .  D
C1598      H1606   1.083       .  S
C1599      H1607   1.086       .  S
C1599      C1600   1.348       .  D
C1600      H1608   1.085       .  S
C1609      C1610   1.403       .  A
C1609      C1614   1.409       .  A
C1609      C1617   1.490       .  S
C1610      C1611   1.400       .  A
C1610      H1619   1.083       .  S
C1611      C1612   1.410       .  A
C1611      H1620   1.082       .  S
C1612      C1613   1.402       .  A
C1612      C1615   1.490       .  S
C1613      C1614   1.399       .  A
C1613      H1621   1.083       .  S
C1614      H1622   1.082       .  S
C1615      H1623   1.085       .  S
C1615      C1616   1.344       .  D
C1616      H1624   1.085       .  S
C1617      H1625   1.086       .  S
C1617      C1618   1.344       .  D
C1618      H1626   1.085       .  S
C1627      C1628   1.404       .  A
C1627      C1632   1.409   1_455  A
C1627      C1635   1.491   1_455  S
C1628      C1629   1.399       .  A
C1628      H1637   1.083       .  S
C1629      C1630   1.406       .  A
C1629      H1638   1.082       .  S
C1630      C1631   1.404       .  A
C1630      C1633   1.489   1_554  S
C1631      C1632   1.402   1_455  A
C1631      H1639   1.083   1_454  S
C1632      H1640   1.081       .  S
C1633      H1641   1.086       .  S
C1633      C1634   1.347   1_556  D
C1634      H1642   1.085       .  S
C1635      H1643   1.085   1_655  S
C1635      C1636   1.347       .  D
C1636      H1644   1.084       .  S
C1645      C1646   1.404       .  A
C1645      C1650   1.406   1_455  A
C1645      C1653   1.485       .  S
C1646      C1647   1.398       .  A
C1646      H1655   1.083       .  S
C1647      C1648   1.407   1_455  A
C1647      H1656   1.081       .  S
C1648      C1649   1.405       .  A
C1648      C1651   1.487       .  S
C1649      C1650   1.398       .  A
C1649      H1657   1.083       .  S
C1650      H1658   1.082       .  S
C1651      H1659   1.085       .  S
C1651      C1652   1.348       .  D
C1652      H1660   1.083   1_655  S
C1653      H1661   1.085       .  S
C1653      C1654   1.347       .  D
C1654      H1662   1.084   1_455  S
C1663      C1664   1.405       .  A
C1663      C1668   1.406       .  A
C1663      C1671   1.490       .  S
C1664      C1665   1.401       .  A
C1664      H1673   1.084       .  S
C1665      C1666   1.408       .  A
C1665      H1674   1.081       .  S
C1666      C1667   1.406       .  A
C1666      C1669   1.492       .  S
C1667      C1668   1.400       .  A
C1667      H1675   1.084       .  S
C1668      H1676   1.081       .  S
C1669      H1677   1.086       .  S
C1669      C1670   1.349       .  D
C1670      H1678   1.085       .  S
C1671      H1679   1.087       .  S
C1671      C1672   1.350       .  D
C1672      H1680   1.085       .  S
C1681      C1682   1.405       .  A
C1681      C1686   1.408       .  A
C1681      C1689   1.493       .  S
C1682      C1683   1.401       .  A
C1682      H1691   1.083       .  S
C1683      C1684   1.408       .  A
C1683      H1692   1.082       .  S
C1684      C1685   1.405       .  A
C1684      C1687   1.494   1_554  S
C1685      C1686   1.402       .  A
C1685      H1693   1.084   1_554  S
C1686      H1694   1.082       .  S
C1687      H1695   1.086       .  S
C1687      C1688   1.349       .  D
C1688      H1696   1.085       .  S
C1689      H1697   1.086       .  S
C1689      C1690   1.349       .  D
C1690      H1698   1.085       .  S
C1699      C1700   1.404       .  A
C1699      C1704   1.408       .  A
C1699      C1707   1.490       .  S
C1700      C1701   1.398       .  A
C1700      H1709   1.083       .  S
C1701      C1702   1.406       .  A
C1701      H1710   1.081       .  S
C1702      C1703   1.405       .  A
C1702      C1705   1.489       .  S
C1703      C1704   1.401       .  A
C1703      H1711   1.083       .  S
C1704      H1712   1.081       .  S
C1705      H1713   1.085       .  S
C1705      C1706   1.349       .  D
C1706      H1714   1.084       .  S
C1707      H1715   1.085       .  S
C1707      C1708   1.349       .  D
C1708      H1716   1.084       .  S
C1717      C1718   1.406       .  A
C1717      C1722   1.409       .  A
C1717      C1725   1.499       .  S
C1718      C1719   1.404       .  A
C1718      H1727   1.083       .  S
C1719      C1720   1.409       .  A
C1719      H1728   1.081       .  S
C1720      C1721   1.405       .  A
C1720      C1723   1.498       .  S
C1721      C1722   1.403       .  A
C1721      H1729   1.083       .  S
C1722      H1730   1.081       .  S
C1723      H1731   1.085       .  S
C1723      C1724   1.349       .  D
C1724      H1732   1.084       .  S
C1725      H1733   1.086       .  S
C1725      C1726   1.351       .  D
C1726      H1734   1.084       .  S
C1735      C1736   1.405       .  A
C1735      C1740   1.407       .  A
C1735      C1743   1.489       .  S
C1736      C1737   1.399       .  A
C1736      H1745   1.084       .  S
C1737      C1738   1.407       .  A
C1737      H1746   1.081       .  S
C1738      C1739   1.405       .  A
C1738      C1741   1.489       .  S
C1739      C1740   1.400       .  A
C1739      H1747   1.084       .  S
C1740      H1748   1.081       .  S
C1741      H1749   1.087       .  S
C1741      C1742   1.348       .  D
C1742      H1750   1.085       .  S
C1743      H1751   1.086       .  S
C1743      C1744   1.348       .  D
C1744      H1752   1.085       .  S
C1753      C1754   1.405       .  A
C1753      C1758   1.407       .  A
C1753      C1761   1.492       .  S
C1754      C1755   1.403       .  A
C1754      H1763   1.083       .  S
C1755      C1756   1.410       .  A
C1755      H1764   1.081       .  S
C1756      C1757   1.404       .  A
C1756      C1759   1.493       .  S
C1757      C1758   1.399       .  A
C1757      H1765   1.084       .  S
C1758      H1766   1.082       .  S
C1759      H1767   1.086       .  S
C1759      C1760   1.348       .  D
C1760      H1768   1.085       .  S
C1761      H1769   1.086       .  S
C1761      C1762   1.347       .  D
C1762      H1770   1.085       .  S
C1771      C1772   1.405       .  A
C1771      C1776   1.405       .  A
C1771      C1779   1.487       .  S
C1772      C1773   1.402       .  A
C1772      H1781   1.084       .  S
C1773      C1774   1.409       .  A
C1773      H1782   1.080       .  S
C1774      C1775   1.405       .  A
C1774      C1777   1.490       .  S
C1775      C1776   1.397       .  A
C1775      H1783   1.084       .  S
C1776      H1784   1.081       .  S
C1777      H1785   1.086       .  S
C1777      C1778   1.349       .  D
C1778      H1786   1.084       .  S
C1779      H1787   1.087       .  S
C1779      C1780   1.348       .  D
C1780      H1788   1.085       .  S
C1789      C1790   1.404       .  A
C1789      C1794   1.409       .  A
C1789      C1797   1.489       .  S
C1790      C1791   1.401       .  A
C1790      H1799   1.083       .  S
C1791      C1792   1.408       .  A
C1791      H1800   1.083       .  S
C1792      C1793   1.401       .  A
C1792      C1795   1.485   1_554  S
C1793      C1794   1.398       .  A
C1793      H1801   1.083       .  S
C1794      H1802   1.082       .  S
C1795      H1803   1.085       .  S
C1795      C1796   1.344       .  D
C1796      H1804   1.085       .  S
C1797      H1805   1.085       .  S
C1797      C1798   1.344       .  D
C1798      H1806   1.085       .  S
C1807      C1808   1.405       .  A
C1807      C1812   1.409       .  A
C1807      C1815   1.494       .  S
C1808      C1809   1.401       .  A
C1808      H1817   1.083       .  S
C1809      C1810   1.409       .  A
C1809      H1818   1.081       .  S
C1810      C1811   1.405       .  A
C1810      C1813   1.494       .  S
C1811      C1812   1.402       .  A
C1811      H1819   1.083       .  S
C1812      H1820   1.080       .  S
C1813      H1821   1.087       .  S
C1813      C1814   1.348       .  D
C1814      H1822   1.084       .  S
C1815      H1823   1.085       .  S
C1815      C1816   1.349       .  D
C1816      H1824   1.083       .  S
C1825      C1826   1.404   1_546  A
C1825      C1830   1.408   1_556  A
C1825      C1833   1.492   1_545  S
C1826      C1827   1.401   1_565  A
C1826      H1835   1.084       .  S
C1827      C1828   1.407       .  A
C1827      H1836   1.081   1_545  S
C1828      C1829   1.405       .  A
C1828      C1831   1.491       .  S
C1829      C1830   1.403       .  A
C1829      H1837   1.085       .  S
C1830      H1838   1.081   1_554  S
C1831      H1839   1.088       .  S
C1831      C1832   1.348       .  D
C1832      H1840   1.087       .  S
C1833      H1841   1.087       .  S
C1833      C1834   1.349   1_565  D
C1834      H1842   1.086       .  S
C1843      C1844   1.403       .  A
C1843      C1848   1.408       .  A
C1843      C1851   1.488   1_545  S
C1844      C1845   1.397   1_554  A
C1844      H1853   1.083   1_554  S
C1845      C1846   1.407   1_556  A
C1845      H1854   1.081       .  S
C1846      C1847   1.405       .  A
C1846      C1849   1.489       .  S
C1847      C1848   1.401       .  A
C1847      H1855   1.083       .  S
C1848      H1856   1.082       .  S
C1849      H1857   1.086       .  S
C1849      C1850   1.346   1_554  D
C1850      H1858   1.084       .  S
C1851      H1859   1.087       .  S
C1851      C1852   1.346   1_565  D
C1852      H1860   1.085       .  S
C1861      C1862   1.402       .  A
C1861      C1866   1.409       .  A
C1861      C1869   1.488       .  S
C1862      C1863   1.398   1_554  A
C1862      H1871   1.082   1_554  S
C1863      C1864   1.407   1_556  A
C1863      H1872   1.082       .  S
C1864      C1865   1.402       .  A
C1864      C1867   1.486       .  S
C1865      C1866   1.400       .  A
C1865      H1873   1.083       .  S
C1866      H1874   1.082       .  S
C1867      H1875   1.085       .  S
C1867      C1868   1.344   1_554  D
C1868      H1876   1.085       .  S
C1869      H1877   1.085       .  S
C1869      C1870   1.343       .  D
C1870      H1878   1.084       .  S
C1879      C1880   1.404       .  A
C1879      C1884   1.409       .  A
C1879      C1887   1.495       .  S
C1880      C1881   1.403       .  A
C1880      H1889   1.083       .  S
C1881      C1882   1.409       .  A
C1881      H1890   1.082       .  S
C1882      C1883   1.405       .  A
C1882      C1885   1.495       .  S
C1883      C1884   1.402       .  A
C1883      H1891   1.083       .  S
C1884      H1892   1.083       .  S
C1885      H1893   1.085       .  S
C1885      C1886   1.349       .  D
C1886      H1894   1.083       .  S
C1887      H1895   1.086       .  S
C1887      C1888   1.348       .  D
C1888      H1896   1.085       .  S
C1897      C1898   1.404       .  A
C1897      C1902   1.409       .  A
C1897      C1905   1.492       .  S
C1898      C1899   1.400       .  A
C1898      H1907   1.084       .  S
C1899      C1900   1.407       .  A
C1899      H1908   1.082       .  S
C1900      C1901   1.404       .  A
C1900      C1903   1.490       .  S
C1901      C1902   1.403       .  A
C1901      H1909   1.084       .  S
C1902      H1910   1.081       .  S
C1903      H1911   1.087       .  S
C1903      C1904   1.346       .  D
C1904      H1912   1.087       .  S
C1905      H1913   1.087       .  S
C1905      C1906   1.348       .  D
C1906      H1914   1.086       .  S
C1915      C1916   1.405       .  A
C1915      C1920   1.407       .  A
C1915      C1923   1.487       .  S
C1916      C1917   1.399       .  A
C1916      H1925   1.083       .  S
C1917      C1918   1.407       .  A
C1917      H1926   1.081       .  S
C1918      C1919   1.404       .  A
C1918      C1921   1.487       .  S
C1919      C1920   1.398       .  A
C1919      H1927   1.083       .  S
C1920      H1928   1.081       .  S
C1921      H1929   1.085       .  S
C1921      C1922   1.347       .  D
C1922      H1930   1.084       .  S
C1923      H1931   1.085       .  S
C1923      C1924   1.348       .  D
C1924      H1932   1.083       .  S
C1933      C1934   1.402       .  A
C1933      C1938   1.408       .  A
C1933      C1941   1.486       .  S
C1934      C1935   1.396       .  A
C1934      H1943   1.085       .  S
C1935      C1936   1.407       .  A
C1935      H1944   1.082       .  S
C1936      C1937   1.404       .  A
C1936      C1939   1.488       .  S
C1937      C1938   1.403       .  A
C1937      H1945   1.084       .  S
C1938      H1946   1.081       .  S
C1939      H1947   1.087       .  S
C1939      C1940   1.344       .  D
C1940      H1948   1.087       .  S
C1941      H1949   1.087       .  S
C1941      C1942   1.347   1_545  D
C1942      H1950   1.086       .  S
C1951      C1952   1.405       .  A
C1951      C1956   1.407       .  A
C1951      C1959   1.492       .  S
C1952      C1953   1.404       .  A
C1952      H1961   1.085       .  S
C1953      C1954   1.408       .  A
C1953      H1962   1.081       .  S
C1954      C1955   1.403       .  A
C1954      C1957   1.491       .  S
C1955      C1956   1.400       .  A
C1955      H1963   1.084       .  S
C1956      H1964   1.081       .  S
C1957      H1965   1.088       .  S
C1957      C1958   1.347       .  D
C1958      H1966   1.087       .  S
C1959      H1967   1.088       .  S
C1959      C1960   1.348       .  D
C1960      H1968   1.087       .  S
C1969      C1970   1.405       .  A
C1969      C1974   1.408       .  A
C1969      C1977   1.490       .  S
C1970      C1971   1.398       .  A
C1970      H1979   1.084       .  S
C1971      C1972   1.406       .  A
C1971      H1980   1.081       .  S
C1972      C1973   1.405       .  A
C1972      C1975   1.489       .  S
C1973      C1974   1.402       .  A
C1973      H1981   1.084       .  S
C1974      H1982   1.080       .  S
C1975      H1983   1.086       .  S
C1975      C1976   1.347       .  D
C1976      H1984   1.085       .  S
C1977      H1985   1.086       .  S
C1977      C1978   1.348       .  D
C1978      H1986   1.084       .  S
C1987      C1988   1.404       .  A
C1987      C1992   1.407       .  A
C1987      C1995   1.488       .  S
C1988      C1989   1.399       .  A
C1988      H1997   1.084       .  S
C1989      C1990   1.406       .  A
C1989      H1998   1.082       .  S
C1990      C1991   1.405       .  A
C1990      C1993   1.489       .  S
C1991      C1992   1.403       .  A
C1991      H1999   1.083       .  S
C1992      H2000   1.082       .  S
C1993      H2001   1.087       .  S
C1993      C1994   1.347       .  D
C1994      H2002   1.086       .  S
C1995      H2003   1.088       .  S
C1995      C1996   1.349       .  D
C1996      H2004   1.086       .  S
C2005      C2006   1.406       .  A
C2005      C2010   1.408       .  A
C2005      C2013   1.493       .  S
C2006      C2007   1.400       .  A
C2006      H2015   1.082       .  S
C2007      C2008   1.407       .  A
C2007      H2016   1.082       .  S
C2008      C2009   1.405       .  A
C2008      C2011   1.492       .  S
C2009      C2010   1.401       .  A
C2009      H2017   1.082       .  S
C2010      H2018   1.081       .  S
C2011      H2019   1.085       .  S
C2011      C2012   1.349       .  D
C2012      H2020   1.084       .  S
C2013      H2021   1.084       .  S
C2013      C2014   1.350       .  D
C2014      H2022   1.083       .  S
C2023      C2024   1.404       .  A
C2023      C2028   1.408       .  A
C2023      C2031   1.489       .  S
C2024      C2025   1.400       .  A
C2024      H2033   1.083       .  S
C2025      C2026   1.408       .  A
C2025      H2034   1.082       .  S
C2026      C2027   1.403       .  A
C2026      C2029   1.489       .  S
C2027      C2028   1.400       .  A
C2027      H2035   1.083       .  S
C2028      H2036   1.082       .  S
C2029      H2037   1.086       .  S
C2029      C2030   1.346       .  D
C2030      H2038   1.085       .  S
C2031      H2039   1.086       .  S
C2031      C2032   1.346       .  D
C2032      H2040   1.085       .  S
C2041      C2042   1.405       .  A
C2041      C2046   1.407       .  A
C2041      C2049   1.489       .  S
C2042      C2043   1.397       .  A
C2042      H2051   1.083       .  S
C2043      C2044   1.406       .  A
C2043      H2052   1.081       .  S
C2044      C2045   1.406       .  A
C2044      C2047   1.488       .  S
C2045      C2046   1.400       .  A
C2045      H2053   1.083       .  S
C2046      H2054   1.081       .  S
C2047      H2055   1.086       .  S
C2047      C2048   1.349       .  D
C2048      H2056   1.084       .  S
C2049      H2057   1.085       .  S
C2049      C2050   1.348       .  D
C2050      H2058   1.084       .  S
C2059      C2060   1.404       .  A
C2059      C2064   1.407       .  A
C2059      C2067   1.490       .  S
C2060      C2061   1.401       .  A
C2060      H2069   1.083       .  S
C2061      C2062   1.408       .  A
C2061      H2070   1.082       .  S
C2062      C2063   1.405       .  A
C2062      C2065   1.492       .  S
C2063      C2064   1.400       .  A
C2063      H2071   1.083       .  S
C2064      H2072   1.082       .  S
C2065      H2073   1.085       .  S
C2065      C2066   1.348       .  D
C2066      H2074   1.084       .  S
C2067      H2075   1.086       .  S
C2067      C2068   1.348       .  D
C2068      H2076   1.085       .  S
C2077      C2078   1.406       .  A
C2077      C2082   1.408       .  A
C2077      C2085   1.494       .  S
C2078      C2079   1.402       .  A
C2078      H2087   1.083       .  S
C2079      C2080   1.408       .  A
C2079      H2088   1.081       .  S
C2080      C2081   1.405       .  A
C2080      C2083   1.492       .  S
C2081      C2082   1.400       .  A
C2081      H2089   1.083       .  S
C2082      H2090   1.081       .  S
C2083      H2091   1.086       .  S
C2083      C2084   1.349       .  D
C2084      H2092   1.084       .  S
C2085      H2093   1.086       .  S
C2085      C2086   1.349       .  D
C2086      H2094   1.084       .  S
C2095      C2096   1.405       .  A
C2095      C2100   1.404       .  A
C2095      C2103   1.486   1_545  S
C2096      C2097   1.402       .  A
C2096      H2105   1.082       .  S
C2097      C2098   1.408       .  A
C2097      H2106   1.082       .  S
C2098      C2099   1.404       .  A
C2098      C2101   1.487       .  S
C2099      C2100   1.396       .  A
C2099      H2107   1.082       .  S
C2100      H2108   1.083       .  S
C2101      H2109   1.083       .  S
C2101      C2102   1.348       .  D
C2102      H2110   1.083       .  S
C2103      H2111   1.085       .  S
C2103      C2104   1.345       .  D
C2104      H2112   1.085       .  S
C2113      C2114   1.403       .  A
C2113      C2118   1.408       .  A
C2113      C2121   1.488       .  S
C2114      C2115   1.401       .  A
C2114      H2123   1.084       .  S
C2115      C2116   1.407       .  A
C2115      H2124   1.082       .  S
C2116      C2117   1.403       .  A
C2116      C2119   1.487       .  S
C2117      C2118   1.400       .  A
C2117      H2125   1.084       .  S
C2118      H2126   1.082       .  S
C2119      H2127   1.087       .  S
C2119      C2120   1.345       .  D
C2120      H2128   1.086       .  S
C2121      H2129   1.087       .  S
C2121      C2122   1.345       .  D
C2122      H2130   1.086       .  S
C2131      C2132   1.404       .  A
C2131      C2136   1.409       .  A
C2131      C2139   1.491       .  S
C2132      C2133   1.400       .  A
C2132      H2141   1.084       .  S
C2133      C2134   1.408       .  A
C2133      H2142   1.081       .  S
C2134      C2135   1.404       .  A
C2134      C2137   1.491       .  S
C2135      C2136   1.400       .  A
C2135      H2143   1.084       .  S
C2136      H2144   1.080       .  S
C2137      H2145   1.087       .  S
C2137      C2138   1.347       .  D
C2138      H2146   1.085       .  S
C2139      H2147   1.086       .  S
C2139      C2140   1.347       .  D
C2140      H2148   1.084       .  S
C2149      C2150   1.404       .  A
C2149      C2154   1.406       .  A
C2149      C2157   1.484       .  S
C2150      C2151   1.399       .  A
C2150      H2159   1.083       .  S
C2151      C2152   1.407       .  A
C2151      H2160   1.082       .  S
C2152      C2153   1.403       .  A
C2152      C2155   1.483       .  S
C2153      C2154   1.397       .  A
C2153      H2161   1.084       .  S
C2154      H2162   1.082       .  S
C2155      H2163   1.086       .  S
C2155      C2156   1.346       .  D
C2156      H2164   1.085       .  S
C2157      H2165   1.086       .  S
C2157      C2158   1.345       .  D
C2158      H2166   1.085       .  S
C2167      C2168   1.404       .  A
C2167      C2172   1.408       .  A
C2167      C2175   1.491       .  S
C2168      C2169   1.403       .  A
C2168      H2177   1.084       .  S
C2169      C2170   1.409       .  A
C2169      H2178   1.082       .  S
C2170      C2171   1.404       .  A
C2170      C2173   1.491       .  S
C2171      C2172   1.401       .  A
C2171      H2179   1.084       .  S
C2172      H2180   1.082       .  S
C2173      H2181   1.087       .  S
C2173      C2174   1.347       .  D
C2174      H2182   1.086       .  S
C2175      H2183   1.087       .  S
C2175      C2176   1.347       .  D
C2176      H2184   1.086       .  S
C2185      C2186   1.404       .  A
C2185      C2190   1.408       .  A
C2185      C2193   1.493       .  S
C2186      C2187   1.400       .  A
C2186      H2195   1.083       .  S
C2187      C2188   1.408       .  A
C2187      H2196   1.081       .  S
C2188      C2189   1.404       .  A
C2188      C2191   1.493       .  S
C2189      C2190   1.402       .  A
C2189      H2197   1.083       .  S
C2190      H2198   1.081       .  S
C2191      H2199   1.086       .  S
C2191      C2192   1.347       .  D
C2192      H2200   1.084       .  S
C2193      H2201   1.086       .  S
C2193      C2194   1.348       .  D
C2194      H2202   1.084       .  S
C2203      C2204   1.406       .  A
C2203      C2208   1.408       .  A
C2203      C2211   1.490       .  S
C2204      C2205   1.397       .  A
C2204      H2213   1.083       .  S
C2205      C2206   1.404       .  A
C2205      H2214   1.082       .  S
C2206      C2207   1.403       .  A
C2206      C2209   1.483       .  S
C2207      C2208   1.398       .  A
C2207      H2215   1.083       .  S
C2208      H2216   1.080       .  S
C2209      H2217   1.086       .  S
C2209      C2210   1.348       .  D
C2210      H2218   1.085       .  S
C2211      H2219   1.085       .  S
C2211      C2212   1.348       .  D
C2212      H2220   1.082       .  S
C2221      C2222   1.402       .  A
C2221      C2226   1.408       .  A
C2221      C2229   1.485       .  S
C2222      C2223   1.399       .  A
C2222      H2231   1.082       .  S
C2223      C2224   1.408       .  A
C2223      H2232   1.083       .  S
C2224      C2225   1.402       .  A
C2224      C2227   1.484       .  S
C2225      C2226   1.397       .  A
C2225      H2233   1.082       .  S
C2226      H2234   1.083       .  S
C2227      H2235   1.083       .  S
C2227      C2228   1.343       .  D
C2228      H2236   1.083       .  S
C2229      H2237   1.085       .  S
C2229      C2230   1.343       .  D
C2230      H2238   1.085       .  S
C2239      C2240   1.405   1_455  A
C2239      C2244   1.407       .  A
C2239      C2247   1.494       .  S
C2240      C2241   1.402       .  A
C2240      H2249   1.082       .  S
C2241      C2242   1.408       .  A
C2241      H2250   1.082       .  S
C2242      C2243   1.408   1_655  A
C2242      C2245   1.498       .  S
C2243      C2244   1.405       .  A
C2243      H2251   1.083       .  S
C2244      H2252   1.083       .  S
C2245      H2253   1.085       .  S
C2245      C2246   1.351       .  D
C2246      H2254   1.084       .  S
C2247      H2255   1.086       .  S
C2247      C2248   1.350       .  D
C2248      H2256   1.085       .  S
C2257      C2258   1.405       .  A
C2257      C2262   1.407   1_455  A
C2257      C2265   1.494       .  S
C2258      C2259   1.403       .  A
C2258      H2267   1.083       .  S
C2259      C2260   1.409   1_455  A
C2259      H2268   1.081       .  S
C2260      C2261   1.405       .  A
C2260      C2263   1.495       .  S
C2261      C2262   1.401       .  A
C2261      H2269   1.083       .  S
C2262      H2270   1.082       .  S
C2263      H2271   1.086       .  S
C2263      C2264   1.350       .  D
C2264      H2272   1.084   1_655  S
C2265      H2273   1.086       .  S
C2265      C2266   1.347       .  D
C2266      H2274   1.086       .  S
C2275      C2276   1.407       .  A
C2275      C2280   1.405       .  A
C2275      C2283   1.489       .  S
C2276      C2277   1.401       .  A
C2276      H2285   1.081       .  S
C2277      C2278   1.409       .  A
C2277      H2286   1.082       .  S
C2278      C2279   1.403       .  A
C2278      C2281   1.492       .  S
C2279      C2280   1.400       .  A
C2279      H2287   1.083       .  S
C2280      H2288   1.084       .  S
C2281      H2289   1.086       .  S
C2281      C2282   1.345       .  D
C2282      H2290   1.085       .  S
C2283      H2291   1.087       .  S
C2283      C2284   1.348       .  D
C2284      H2292   1.085       .  S
C2293      C2294   1.402   1_655  A
C2293      C2298   1.409       .  A
C2293      C2301   1.489       .  S
C2294      C2295   1.399       .  A
C2294      H2303   1.083       .  S
C2295      C2296   1.409       .  A
C2295      H2304   1.082       .  S
C2296      C2297   1.403   1_455  A
C2296      C2299   1.490       .  S
C2297      C2298   1.400       .  A
C2297      H2305   1.083       .  S
C2298      H2306   1.082       .  S
C2299      H2307   1.085       .  S
C2299      C2300   1.345       .  D
C2300      H2308   1.084       .  S
C2301      H2309   1.086       .  S
C2301      C2302   1.344       .  D
C2302      H2310   1.085       .  S
C2311      C2312   1.405       .  A
C2311      C2316   1.408       .  A
C2311      C2319   1.493       .  S
C2312      C2313   1.400       .  A
C2312      H2321   1.084       .  S
C2313      C2314   1.408       .  A
C2313      H2322   1.082       .  S
C2314      C2315   1.405       .  A
C2314      C2317   1.493       .  S
C2315      C2316   1.402       .  A
C2315      H2323   1.083       .  S
C2316      H2324   1.082       .  S
C2317      H2325   1.086       .  S
C2317      C2318   1.348       .  D
C2318      H2326   1.085       .  S
C2319      H2327   1.087       .  S
C2319      C2320   1.349       .  D
C2320      H2328   1.085       .  S
C2329      C2330   1.407       .  A
C2329      C2334   1.406       .  A
C2329      C2337   1.491       .  S
C2330      C2331   1.402       .  A
C2330      H2339   1.083       .  S
C2331      C2332   1.406       .  A
C2331      H2340   1.082       .  S
C2332      C2333   1.406       .  A
C2332      C2335   1.489       .  S
C2333      C2334   1.400       .  A
C2333      H2341   1.083       .  S
C2334      H2342   1.081       .  S
C2335      H2343   1.086       .  S
C2335      C2336   1.351       .  D
C2336      H2344   1.085       .  S
C2337      H2345   1.086       .  S
C2337      C2338   1.351       .  D
C2338      H2346   1.085       .  S
C2347      C2348   1.405       .  A
C2347      C2352   1.409       .  A
C2347      C2355   1.493       .  S
C2348      C2349   1.401       .  A
C2348      H2357   1.083       .  S
C2349      C2350   1.408       .  A
C2349      H2358   1.081       .  S
C2350      C2351   1.405       .  A
C2350      C2353   1.492       .  S
C2351      C2352   1.401       .  A
C2351      H2359   1.083       .  S
C2352      H2360   1.082       .  S
C2353      H2361   1.085       .  S
C2353      C2354   1.348       .  D
C2354      H2362   1.084       .  S
C2355      H2363   1.086       .  S
C2355      C2356   1.348       .  D
C2356      H2364   1.085       .  S
C2365      C2366   1.406       .  A
C2365      C2370   1.408       .  A
C2365      C2373   1.489       .  S
C2366      C2367   1.398       .  A
C2366      H2375   1.084       .  S
C2367      C2368   1.405       .  A
C2367      H2376   1.082       .  S
C2368      C2369   1.402       .  A
C2368      C2371   1.483       .  S
C2369      C2370   1.399       .  A
C2369      H2377   1.084       .  S
C2370      H2378   1.079       .  S
C2371      H2379   1.087       .  S
C2371      C2372   1.345       .  D
C2372      H2380   1.086       .  S
C2373      H2381   1.085       .  S
C2373      C2374   1.349       .  D
C2374      H2382   1.083       .  S
C2383      C2384   1.403       .  A
C2383      C2388   1.408       .  A
C2383      C2391   1.489       .  S
C2384      C2385   1.400       .  A
C2384      H2393   1.082       .  S
C2385      C2386   1.409       .  A
C2385      H2394   1.082       .  S
C2386      C2387   1.404       .  A
C2386      C2389   1.492       .  S
C2387      C2388   1.400       .  A
C2387      H2395   1.082       .  S
C2388      H2396   1.083       .  S
C2389      H2397   1.084       .  S
C2389      C2390   1.346       .  D
C2390      H2398   1.083       .  S
C2391      H2399   1.085       .  S
C2391      C2392   1.345       .  D
C2392      H2400   1.084       .  S
C2401      C2402   1.403       .  A
C2401      C2406   1.407       .  A
C2401      C2409   1.487       .  S
C2402      C2403   1.399       .  A
C2402      H2411   1.085       .  S
C2403      C2404   1.408       .  A
C2403      H2412   1.081       .  S
C2404      C2405   1.404       .  A
C2404      C2407   1.490       .  S
C2405      C2406   1.402       .  A
C2405      H2413   1.084       .  S
C2406      H2414   1.081       .  S
C2407      H2415   1.087       .  S
C2407      C2408   1.347       .  D
C2408      H2416   1.086       .  S
C2409      H2417   1.087       .  S
C2409      C2410   1.347       .  D
C2410      H2418   1.087       .  S
C2419      C2420   1.404       .  A
C2419      C2424   1.406       .  A
C2419      C2427   1.486       .  S
C2420      C2421   1.399       .  A
C2420      H2429   1.083       .  S
C2421      C2422   1.407       .  A
C2421      H2430   1.081   1_545  S
C2422      C2423   1.406       .  A
C2422      C2425   1.489       .  S
C2423      C2424   1.400       .  A
C2423      H2431   1.083       .  S
C2424      H2432   1.082       .  S
C2425      H2433   1.087       .  S
C2425      C2426   1.349       .  D
C2426      H2434   1.085   1_545  S
C2427      H2435   1.085       .  S
C2427      C2428   1.348       .  D
C2428      H2436   1.085       .  S
C2437      C2438   1.404       .  A
C2437      C2442   1.408       .  A
C2437      C2445   1.488       .  S
C2438      C2439   1.397       .  A
C2438      H2447   1.083       .  S
C2439      C2440   1.406       .  A
C2439      H2448   1.082       .  S
C2440      C2441   1.404       .  A
C2440      C2443   1.487       .  S
C2441      C2442   1.400       .  A
C2441      H2449   1.083   1_545  S
C2442      H2450   1.081       .  S
C2443      H2451   1.086   1_545  S
C2443      C2444   1.346       .  D
C2444      H2452   1.085       .  S
C2445      H2453   1.085       .  S
C2445      C2446   1.346       .  D
C2446      H2454   1.084       .  S
C2455      C2456   1.404       .  A
C2455      C2460   1.408       .  A
C2455      C2463   1.489       .  S
C2456      C2457   1.400       .  A
C2456      H2465   1.084       .  S
C2457      C2458   1.407       .  A
C2457      H2466   1.081       .  S
C2458      C2459   1.405       .  A
C2458      C2461   1.489       .  S
C2459      C2460   1.403       .  A
C2459      H2467   1.084       .  S
C2460      H2468   1.082       .  S
C2461      H2469   1.087       .  S
C2461      C2462   1.348       .  D
C2462      H2470   1.086       .  S
C2463      H2471   1.087       .  S
C2463      C2464   1.347       .  D
C2464      H2472   1.086       .  S
C2473      C2474   1.405       .  A
C2473      C2478   1.409       .  A
C2473      C2481   1.493       .  S
C2474      C2475   1.401       .  A
C2474      H2483   1.083       .  S
C2475      C2476   1.409       .  A
C2475      H2484   1.082       .  S
C2476      C2477   1.403       .  A
C2476      C2479   1.492       .  S
C2477      C2478   1.400       .  A
C2477      H2485   1.083       .  S
C2478      H2486   1.081       .  S
C2479      H2487   1.086       .  S
C2479      C2480   1.346       .  D
C2480      H2488   1.085       .  S
C2481      H2489   1.087       .  S
C2481      C2482   1.348       .  D
C2482      H2490   1.084       .  S
C2491      C2492   1.406       .  A
C2491      C2496   1.407       .  A
C2491      C2499   1.490       .  S
C2492      C2493   1.400       .  A
C2492      H2501   1.083       .  S
C2493      C2494   1.406       .  A
C2493      H2502   1.081       .  S
C2494      C2495   1.405       .  A
C2494      C2497   1.488       .  S
C2495      C2496   1.399       .  A
C2495      H2503   1.084       .  S
C2496      H2504   1.080       .  S
C2497      H2505   1.086       .  S
C2497      C2498   1.349       .  D
C2498      H2506   1.084       .  S
C2499      H2507   1.086       .  S
C2499      C2500   1.349       .  D
C2500      H2508   1.084       .  S
C2509      C2510   1.405       .  A
C2509      C2514   1.406       .  A
C2509      C2517   1.487       .  S
C2510      C2511   1.399       .  A
C2510      H2519   1.082       .  S
C2511      C2512   1.407       .  A
C2511      H2520   1.081       .  S
C2512      C2513   1.405       .  A
C2512      C2515   1.489       .  S
C2513      C2514   1.398       .  A
C2513      H2521   1.082       .  S
C2514      H2522   1.082       .  S
C2515      H2523   1.084       .  S
C2515      C2516   1.348       .  D
C2516      H2524   1.082       .  S
C2517      H2525   1.085       .  S
C2517      C2518   1.348       .  D
C2518      H2526   1.084       .  S
C2527      C2528   1.405       .  A
C2527      C2532   1.409       .  A
C2527      C2535   1.495       .  S
C2528      C2529   1.403       .  A
C2528      H2537   1.083       .  S
C2529      C2530   1.409       .  A
C2529      H2538   1.081       .  S
C2530      C2531   1.404       .  A
C2530      C2533   1.494       .  S
C2531      C2532   1.400       .  A
C2531      H2539   1.084       .  S
C2532      H2540   1.081       .  S
C2533      H2541   1.087       .  S
C2533      C2534   1.349       .  D
C2534      H2542   1.085       .  S
C2535      H2543   1.086       .  S
C2535      C2536   1.348       .  D
C2536      H2544   1.084       .  S
C2545      C2546   1.405       .  A
C2545      C2550   1.407       .  A
C2545      C2553   1.490       .  S
C2546      C2547   1.400       .  A
C2546      H2555   1.084       .  S
C2547      C2548   1.406       .  A
C2547      H2556   1.081       .  S
C2548      C2549   1.405       .  A
C2548      C2551   1.489       .  S
C2549      C2550   1.402       .  A
C2549      H2557   1.084       .  S
C2550      H2558   1.081       .  S
C2551      H2559   1.087       .  S
C2551      C2552   1.349       .  D
C2552      H2560   1.085       .  S
C2553      H2561   1.086       .  S
C2553      C2554   1.349       .  D
C2554      H2562   1.085       .  S
C2563      C2564   1.405       .  A
C2563      C2568   1.408       .  A
C2563      C2571   1.496       .  S
C2564      C2565   1.403       .  A
C2564      H2573   1.083       .  S
C2565      C2566   1.409       .  A
C2565      H2574   1.081       .  S
C2566      C2567   1.405       .  A
C2566      C2569   1.496       .  S
C2567      C2568   1.402       .  A
C2567      H2575   1.084       .  S
C2568      H2576   1.081       .  S
C2569      H2577   1.085       .  S
C2569      C2570   1.350       .  D
C2570      H2578   1.084       .  S
C2571      H2579   1.086       .  S
C2571      C2572   1.349       .  D
C2572      H2580   1.084       .  S
C2581      C2582   1.403       .  A
C2581      C2586   1.405       .  A
C2581      C2589   1.484       .  S
C2582      C2583   1.396       .  A
C2582      H2591   1.083       .  S
C2583      C2584   1.408       .  A
C2583      H2592   1.079       .  S
C2584      C2585   1.406       .  A
C2584      C2587   1.490       .  S
C2585      C2586   1.399       .  A
C2585      H2593   1.083       .  S
C2586      H2594   1.082       .  S
C2587      H2595   1.084       .  S
C2587      C2588   1.348       .  D
C2588      H2596   1.081       .  S
C2589      H2597   1.085       .  S
C2589      C2590   1.347       .  D
C2590      H2598   1.084       .  S
C2599      C2600   1.405       .  A
C2599      C2604   1.408       .  A
C2599      C2607   1.493       .  S
C2600      C2601   1.400       .  A
C2600      H2609   1.083       .  S
C2601      C2602   1.407       .  A
C2601      H2610   1.082       .  S
C2602      C2603   1.405       .  A
C2602      C2605   1.492       .  S
C2603      C2604   1.403       .  A
C2603      H2611   1.084       .  S
C2604      H2612   1.081       .  S
C2605      H2613   1.086       .  S
C2605      C2606   1.349       .  D
C2606      H2614   1.085       .  S
C2607      H2615   1.087       .  S
C2607      C2608   1.350       .  D
C2608      H2616   1.084       .  S
C2617      C2618   1.405       .  A
C2617      C2622   1.407       .  A
C2617      C2625   1.489       .  S
C2618      C2619   1.398       .  A
C2618      H2627   1.083       .  S
C2619      C2620   1.406       .  A
C2619      H2628   1.082       .  S
C2620      C2621   1.406       .  A
C2620      C2623   1.489       .  S
C2621      C2622   1.402       .  A
C2621      H2629   1.083       .  S
C2622      H2630   1.081       .  S
C2623      H2631   1.087       .  S
C2623      C2624   1.348       .  D
C2624      H2632   1.085       .  S
C2625      H2633   1.086       .  S
C2625      C2626   1.350       .  D
C2626      H2634   1.084       .  S
C2635      C2636   1.404       .  A
C2635      C2640   1.407       .  A
C2635      C2643   1.490       .  S
C2636      C2637   1.402       .  A
C2636      H2645   1.084       .  S
C2637      C2638   1.408       .  A
C2637      H2646   1.081       .  S
C2638      C2639   1.405       .  A
C2638      C2641   1.491       .  S
C2639      C2640   1.402       .  A
C2639      H2647   1.085       .  S
C2640      H2648   1.081       .  S
C2641      H2649   1.088       .  S
C2641      C2642   1.348       .  D
C2642      H2650   1.087       .  S
C2643      H2651   1.088       .  S
C2643      C2644   1.348       .  D
C2644      H2652   1.086       .  S
C2653      C2654   1.402       .  A
C2653      C2658   1.410       .  A
C2653      C2661   1.491       .  S
C2654      C2655   1.399       .  A
C2654      H2663   1.083       .  S
C2655      C2656   1.409       .  A
C2655      H2664   1.082       .  S
C2656      C2657   1.403       .  A
C2656      C2659   1.491       .  S
C2657      C2658   1.402       .  A
C2657      H2665   1.083       .  S
C2658      H2666   1.082       .  S
C2659      H2667   1.086       .  S
C2659      C2660   1.345       .  D
C2660      H2668   1.086       .  S
C2661      H2669   1.086       .  S
C2661      C2662   1.344       .  D
C2662      H2670   1.085       .  S
C2671      C2672   1.406       .  A
C2671      C2676   1.407       .  A
C2671      C2679   1.490       .  S
C2672      C2673   1.401       .  A
C2672      H2681   1.084       .  S
C2673      C2674   1.407       .  A
C2673      H2682   1.081       .  S
C2674      C2675   1.405       .  A
C2674      C2677   1.490       .  S
C2675      C2676   1.399       .  A
C2675      H2683   1.084       .  S
C2676      H2684   1.081       .  S
C2677      H2685   1.086       .  S
C2677      C2678   1.349       .  D
C2678      H2686   1.085       .  S
C2679      H2687   1.086       .  S
C2679      C2680   1.349       .  D
C2680      H2688   1.085       .  S
C2689      C2690   1.404       .  A
C2689      C2694   1.409       .  A
C2689      C2697   1.489       .  S
C2690      C2691   1.399       .  A
C2690      H2699   1.084       .  S
C2691      C2692   1.406       .  A
C2691      H2700   1.082       .  S
C2692      C2693   1.403       .  A
C2692      C2695   1.486       .  S
C2693      C2694   1.403       .  A
C2693      H2701   1.084       .  S
C2694      H2702   1.081       .  S
C2695      H2703   1.087       .  S
C2695      C2696   1.344       .  D
C2696      H2704   1.087       .  S
C2697      H2705   1.088       .  S
C2697      C2698   1.348       .  D
C2698      H2706   1.086       .  S
C2707      C2708   1.407       .  A
C2707      C2712   1.409       .  A
C2707      C2715   1.499       .  S
C2708      C2709   1.405       .  A
C2708      H2717   1.084       .  S
C2709      C2710   1.408       .  A
C2709      H2718   1.080       .  S
C2710      C2711   1.404       .  A
C2710      C2713   1.495       .  S
C2711      C2712   1.400       .  A
C2711      H2719   1.084       .  S
C2712      H2720   1.080       .  S
C2713      H2721   1.085       .  S
C2713      C2714   1.351       .  D
C2714      H2722   1.084       .  S
C2715      H2723   1.087       .  S
C2715      C2716   1.350       .  D
C2716      H2724   1.084       .  S
C2725      C2726   1.406       .  A
C2725      C2730   1.408       .  A
C2725      C2733   1.489       .  S
C2726      C2727   1.398       .  A
C2726      H2735   1.083       .  S
C2727      C2728   1.405       .  A
C2727      H2736   1.082       .  S
C2728      C2729   1.403       .  A
C2728      C2731   1.484       .  S
C2729      C2730   1.398       .  A
C2729      H2737   1.083       .  S
C2730      H2738   1.080       .  S
C2731      H2739   1.086       .  S
C2731      C2732   1.345       .  D
C2732      H2740   1.085       .  S
C2733      H2741   1.085       .  S
C2733      C2734   1.348       .  D
C2734      H2742   1.082       .  S
C2743      C2744   1.405       .  A
C2743      C2748   1.408       .  A
C2743      C2751   1.495       .  S
C2744      C2745   1.403       .  A
C2744      H2753   1.083       .  S
C2745      C2746   1.408       .  A
C2745      H2754   1.082       .  S
C2746      C2747   1.404       .  A
C2746      C2749   1.493       .  S
C2747      C2748   1.402       .  A
C2747      H2755   1.084       .  S
C2748      H2756   1.082       .  S
C2749      H2757   1.086       .  S
C2749      C2750   1.348       .  D
C2750      H2758   1.085       .  S
C2751      H2759   1.087       .  S
C2751      C2752   1.349       .  D
C2752      H2760   1.085       .  S
C2761      C2762   1.407       .  A
C2761      C2766   1.409       .  A
C2761      C2769   1.497       .  S
C2762      C2763   1.405       .  A
C2762      H2771   1.083       .  S
C2763      C2764   1.408       .  A
C2763      H2772   1.082       .  S
C2764      C2765   1.404       .  A
C2764      C2767   1.493       .  S
C2765      C2766   1.400       .  A
C2765      H2773   1.084       .  S
C2766      H2774   1.081       .  S
C2767      H2775   1.087       .  S
C2767      C2768   1.350       .  D
C2768      H2776   1.086       .  S
C2769      H2777   1.086       .  S
C2769      C2770   1.349       .  D
C2770      H2778   1.085       .  S
C2779      C2780   1.407       .  A
C2779      C2784   1.408       .  A
C2779      C2787   1.493       .  S
C2780      C2781   1.401       .  A
C2780      H2789   1.084       .  S
C2781      C2782   1.406       .  A
C2781      H2790   1.082       .  S
C2782      C2783   1.405       .  A
C2782      C2785   1.489       .  S
C2783      C2784   1.400       .  A
C2783      H2791   1.084       .  S
C2784      H2792   1.080       .  S
C2785      H2793   1.086       .  S
C2785      C2786   1.348       .  D
C2786      H2794   1.085       .  S
C2787      H2795   1.087       .  S
C2787      C2788   1.350       .  D
C2788      H2796   1.085       .  S
C2797      C2798   1.407       .  A
C2797      C2802   1.407       .  A
C2797      C2805   1.494       .  S
C2798      C2799   1.401       .  A
C2798      H2807   1.082       .  S
C2799      C2800   1.407       .  A
C2799      H2808   1.083       .  S
C2800      C2801   1.405       .  A
C2800      C2803   1.491       .  S
C2801      C2802   1.399       .  A
C2801      H2809   1.082       .  S
C2802      H2810   1.081       .  S
C2803      H2811   1.085       .  S
C2803      C2804   1.348       .  D
C2804      H2812   1.084       .  S
C2805      H2813   1.084       .  S
C2805      C2806   1.351       .  D
C2806      H2814   1.082       .  S
C2815      C2816   1.404       .  A
C2815      C2820   1.407       .  A
C2815      C2823   1.489       .  S
C2816      C2817   1.402       .  A
C2816      H2825   1.083       .  S
C2817      C2818   1.409       .  A
C2817      H2826   1.082       .  S
C2818      C2819   1.405       .  A
C2818      C2821   1.492       .  S
C2819      C2820   1.400       .  A
C2819      H2827   1.083       .  S
C2820      H2828   1.083       .  S
C2821      H2829   1.085       .  S
C2821      C2822   1.348       .  D
C2822      H2830   1.084       .  S
C2823      H2831   1.086       .  S
C2823      C2824   1.347       .  D
C2824      H2832   1.085       .  S
C2833      C2834   1.406       .  A
C2833      C2838   1.408       .  A
C2833      C2841   1.493       .  S
C2834      C2835   1.405       .  A
C2834      H2843   1.084       .  S
C2835      C2836   1.409       .  A
C2835      H2844   1.081       .  S
C2836      C2837   1.402       .  A
C2836      C2839   1.490       .  S
C2837      C2838   1.399       .  A
C2837      H2845   1.084       .  S
C2838      H2846   1.081       .  S
C2839      H2847   1.088       .  S
C2839      C2840   1.346       .  D
C2840      H2848   1.087       .  S
C2841      H2849   1.087       .  S
C2841      C2842   1.347       .  D
C2842      H2850   1.087       .  S
C2851      C2852   1.405       .  A
C2851      C2856   1.407       .  A
C2851      C2859   1.488       .  S
C2852      C2853   1.398       .  A
C2852      H2861   1.084       .  S
C2853      C2854   1.405       .  A
C2853      H2862   1.082       .  S
C2854      C2855   1.404       .  A
C2854      C2857   1.485       .  S
C2855      C2856   1.401       .  A
C2855      H2863   1.084       .  S
C2856      H2864   1.081       .  S
C2857      H2865   1.087       .  S
C2857      C2858   1.347       .  D
C2858      H2866   1.086       .  S
C2859      H2867   1.086       .  S
C2859      C2860   1.349       .  D
C2860      H2868   1.085       .  S
C2869      C2870   1.406       .  A
C2869      C2874   1.406       .  A
C2869      C2877   1.491       .  S
C2870      C2871   1.400       .  A
C2870      H2879   1.082       .  S
C2871      C2872   1.407       .  A
C2871      H2880   1.082       .  S
C2872      C2873   1.406       .  A
C2872      C2875   1.492       .  S
C2873      C2874   1.400       .  A
C2873      H2881   1.082       .  S
C2874      H2882   1.082       .  S
C2875      H2883   1.084       .  S
C2875      C2876   1.350       .  D
C2876      H2884   1.083       .  S
C2877      H2885   1.085       .  S
C2877      C2878   1.350       .  D
C2878      H2886   1.084       .  S
C2887      C2888   1.405   1_554  A
C2887      C2892   1.409       .  A
C2887      C2895   1.493       .  S
C2888      C2889   1.402       .  A
C2888      H2897   1.084       .  S
C2889      C2890   1.407       .  A
C2889      H2898   1.082       .  S
C2890      C2891   1.404   1_556  A
C2890      C2893   1.488       .  S
C2891      C2892   1.400       .  A
C2891      H2899   1.084       .  S
C2892      H2900   1.081       .  S
C2893      H2901   1.086       .  S
C2893      C2894   1.348       .  D
C2894      H2902   1.085       .  S
C2895      H2903   1.087       .  S
C2895      C2896   1.348       .  D
C2896      H2904   1.085       .  S
C2905      C2906   1.404       .  A
C2905      C2910   1.405       .  A
C2905      C2913   1.486       .  S
C2906      C2907   1.404       .  A
C2906      H2915   1.084       .  S
C2907      C2908   1.409       .  A
C2907      H2916   1.080       .  S
C2908      C2909   1.404       .  A
C2908      C2911   1.489       .  S
C2909      C2910   1.395       .  A
C2909      H2917   1.084       .  S
C2910      H2918   1.082       .  S
C2911      H2919   1.085       .  S
C2911      C2912   1.349       .  D
C2912      H2920   1.085       .  S
C2913      H2921   1.087       .  S
C2913      C2914   1.343       .  D
C2914      H2922   1.087       .  S
C2923      C2924   1.407       .  A
C2923      C2928   1.406       .  A
C2923      C2931   1.493       .  S
C2924      C2925   1.405       .  A
C2924      H2933   1.083       .  S
C2925      C2926   1.409       .  A
C2925      H2934   1.082       .  S
C2926      C2927   1.404       .  A
C2926      C2929   1.492       .  S
C2927      C2928   1.396       .  A
C2927      H2935   1.083       .  S
C2928      H2936   1.082   1_554  S
C2929      H2937   1.084       .  S
C2929      C2930   1.350       .  D
C2930      H2938   1.084       .  S
C2931      H2939   1.087       .  S
C2931      C2932   1.349   1_554  D
C2932      H2940   1.085       .  S
C2941      C2942   1.403       .  A
C2941      C2946   1.408       .  A
C2941      C2949   1.487       .  S
C2942      C2943   1.394       .  A
C2942      H2951   1.084       .  S
C2943      C2944   1.405       .  A
C2943      H2952   1.083       .  S
C2944      C2945   1.405       .  A
C2944      C2947   1.488       .  S
C2945      C2946   1.405       .  A
C2945      H2953   1.083       .  S
C2946      H2954   1.081       .  S
C2947      H2955   1.086       .  S
C2947      C2948   1.343       .  D
C2948      H2956   1.087       .  S
C2949      H2957   1.084       .  S
C2949      C2950   1.349       .  D
C2950      H2958   1.084       .  S
C2959      C2960   1.404       .  A
C2959      C2964   1.406   1_556  A
C2959      C2967   1.487       .  S
C2960      C2961   1.399   1_556  A
C2960      H2969   1.083       .  S
C2961      C2962   1.407       .  A
C2961      H2970   1.080   1_554  S
C2962      C2963   1.405       .  A
C2962      C2965   1.489       .  S
C2963      C2964   1.398       .  A
C2963      H2971   1.083       .  S
C2964      H2972   1.081       .  S
C2965      H2973   1.085       .  S
C2965      C2966   1.349       .  D
C2966      H2974   1.083       .  S
C2967      H2975   1.086       .  S
C2967      C2968   1.347       .  D
C2968      H2976   1.085   1_556  S
