geometry optimzed in LAMMPS
_audit_creation_date              2020-11-30 
_audit_creation_method            'lammps2cif' 
_symmetry_space_group_name_H-M    'P1' 
_symmetry_Int_Tables_number       1 
_symmetry_cell_setting            triclinic 
loop_ 
_symmetry_equiv_pos_as_xyz 
  x,y,z 
_cell_length_a                    35.32843866424096 
_cell_length_b                    37.18354379058833 
_cell_length_c                    30.580042606146236 
_cell_angle_alpha                 87.6997024899387 
_cell_angle_beta                  91.20223181984028 
_cell_angle_gamma                 119.30362170405469 
loop_ 
_atom_site_label 
_atom_site_type_symbol 
_atom_site_fract_x 
_atom_site_fract_y 
_atom_site_fract_z 
_atom_site_charge 
C1          C  0.95376385  0.66060429  0.38372524     0.42040
N2          N  0.88494423  0.62856756  0.37874951     0.00930
C3          C  0.76465956  0.55602393  0.18891721    -0.06940
H4          H  0.85380847  0.70063698  0.18478574     0.06430
C5          C  0.72954343  0.66925686  0.33451968    -0.07290
Co6        Co  0.85725281  0.59448634  0.28884048     0.74180
N7          N  0.84495607  0.65688502  0.23843837    -0.26470
Co8        Co  0.77754149  0.61373475  0.25832682     0.74070
C9          C  0.73317413  0.69069260  0.29326435     0.42150
N10         N  0.78443535  0.64069542  0.40981345     0.00550
N11         N  0.76654684  0.65606444  0.28850121     0.00660
N12         N  0.82372946  0.54853049  0.19776288    -0.47320
H13         H  0.96177067  0.64932117  0.31186243     0.06410
N14         N  0.87351077  0.64736974  0.25572367     0.00940
N15         N  0.71582124  0.56688508  0.27994870     0.00680
C16         C  0.65919870  0.50770778  0.28370379     0.42290
N17         N  0.81236687  0.63262712  0.43090822    -0.25930
C18         C  0.83845661  0.50820166  0.31367844    -0.06850
N19         N  0.91697872  0.64766715  0.40630891    -0.47030
N20         N  0.69000856  0.53489748  0.25623224    -0.47260
C21         C  0.82583580  0.48226481  0.35274102     0.42060
N22         N  0.81614107  0.56314448  0.23404966     0.00930
N23         N  0.76555944  0.54276270  0.41959144    -0.25950
N24         N  0.89841985  0.62777819  0.33905003    -0.26440
N25         N  0.73507704  0.55305794  0.41846879     0.00570
H26         H  0.79376076  0.52238319  0.46935561     0.06460
H27         H  0.65293478  0.50982946  0.35793974     0.06490
N28         N  0.78344941  0.56994084  0.22730259    -0.26490
N29         N  0.74982694  0.64771541  0.32819827    -0.26100
N30         N  0.83119962  0.53977042  0.36847263     0.00930
C31         C  0.91444171  0.69607384  0.21025313     0.42330
C32         C  0.81818040  0.65093931  0.47047276    -0.07350
N33         N  0.70422176  0.56047599  0.32186569    -0.26100
H34         H  0.70888094  0.66495435  0.36209054     0.06480
N35         N  0.91313952  0.66917615  0.24088114    -0.47320
H36         H  0.83523471  0.64659875  0.49817088     0.06470
C37         C  0.73589086  0.52867074  0.48527418     0.42170
C38         C  0.94176387  0.64782113  0.33889422    -0.06850
Co39       Co  0.82461268  0.58641329  0.39965640     0.73820
N40         N  0.77223304  0.66367442  0.43003130    -0.47040
C41         C  0.79104527  0.54197501  0.16836225     0.42430
N42         N  0.82141548  0.50292704  0.38579258    -0.47030
Co43       Co  0.74265345  0.59983264  0.36910262     0.73890
C44         C  0.66831666  0.52423704  0.32706185    -0.07360
C45         C  0.86796947  0.68780564  0.20786240    -0.06920
N46         N  0.84060184  0.54278300  0.32627094    -0.26450
N47         N  0.75626488  0.68112413  0.26617359    -0.47210
H48         H  0.74138891  0.56344218  0.17345396     0.06440
C49         C  0.76542980  0.52381073  0.45751096    -0.07330
Cl50       Cl  0.80069200  0.59885138  0.32873831    -0.50340
C51         C  0.79040516  0.67158534  0.46932977     0.42190
H52         H  0.84472907  0.50210854  0.28109008     0.06410
N53         N  0.71871834  0.54801163  0.45891228    -0.47050
C54         C  0.76416724  0.72433708  0.77307904     0.42040
N55         N  0.76866093  0.66929015  0.77737968     0.00930
C56         C  0.81590227  0.57274848  0.95219631    -0.06940
H57         H  0.90308519  0.72047438  0.95501169     0.06430
C58         C  0.96794076  0.71723638  0.80658021    -0.07290
Co59       Co  0.76801828  0.63280408  0.86676474     0.74180
N60         N  0.85241765  0.68198598  0.90976988    -0.26470
Co61       Co  0.86542168  0.63626998  0.88429814     0.74070
C62         C  0.98199014  0.73529461  0.85046370     0.42150
N63         N  0.87730859  0.67869792  0.73267248     0.00550
N64         N  0.91984652  0.68085101  0.85501175     0.00660
N65         N  0.75429774  0.57640110  0.95434441    -0.47320
H66         H  0.76011001  0.72496048  0.84882378     0.06410
N67         N  0.81553227  0.68090099  0.89892846     0.00940
N68         N  0.87495599  0.59066396  0.85610955     0.00680
C69         C  0.87333356  0.53394473  0.84370511     0.42290
N70         N  0.83952942  0.67601439  0.72239869    -0.25930
C71         C  0.68658579  0.54951899  0.84685376    -0.06850
N72         N  0.76864489  0.69722375  0.75006209    -0.47030
N73         N  0.86858064  0.55556829  0.87548335    -0.47260
C74         C  0.66874293  0.52339338  0.80927220     0.42060
N75         N  0.77514626  0.59273093  0.91631868     0.00930
N76         N  0.79359736  0.58431741  0.72961263    -0.25950
N77         N  0.76460746  0.67500501  0.81881320    -0.26440
N78         N  0.83358836  0.59091456  0.72667501     0.00570
H79         H  0.73843144  0.56022830  0.68750963     0.06460
H80         H  0.88371684  0.54878855  0.77003796     0.06490
N81         N  0.81219445  0.59238360  0.91645233    -0.26490
N82         N  0.92848551  0.68291797  0.81294690    -0.26100
N83         N  0.72655954  0.57965183  0.78955731     0.00930
C84         C  0.84412026  0.73085881  0.94259710     0.42330
C85         C  0.84843408  0.70731941  0.69243174    -0.07350
N86         N  0.88158083  0.59169600  0.81348111    -0.26100
H87         H  0.98468640  0.72814641  0.77560790     0.06480
N88         N  0.80935083  0.70878291  0.91766731    -0.47320
H89         H  0.82480603  0.71417754  0.67689991     0.06470
C90         C  0.79868195  0.55878995  0.66752600     0.42170
C91         C  0.76210859  0.71040410  0.81971490    -0.06850
Co92       Co  0.78128348  0.62684298  0.75477588     0.73820
N93         N  0.91097106  0.70879542  0.71240493    -0.47040
C94         C  0.77819869  0.56239889  0.97837546     0.42430
N95         N  0.69525776  0.54397849  0.77479651    -0.47030
Co96       Co  0.88145728  0.63597001  0.77121322     0.73890
C97         C  0.88194541  0.55759757  0.80290309    -0.07360
C98         C  0.87292083  0.71274655  0.93828270    -0.06920
N99         N  0.72216736  0.58311710  0.83183017    -0.26450
N100        N  0.95026700  0.71055269  0.87788143    -0.47210
H101        H  0.84588959  0.57397048  0.96285385     0.06440
C102        C  0.76928746  0.56247390  0.69645717    -0.07330
Cl103      Cl  0.82393991  0.63276414  0.81928838    -0.50340
C104        C  0.89641400  0.72901181  0.68642302     0.42190
H105        H  0.67569596  0.54336213  0.88048851     0.06410
N106        N  0.83868028  0.57795585  0.68790158    -0.47050
C107        C  0.10664095  0.86413626  0.95849166     0.42040
N108        N  0.14711891  0.88416989  0.01665019     0.00930
C109        C  0.36623266  0.95059843  0.98559251    -0.06940
H110        H  0.25088934  0.81073391  0.92775055     0.06430
C111        C  0.20056257  0.74641666  0.06262178    -0.07290
Co112      Co  0.24097967  0.93100226  0.99047879     0.74180
N113        N  0.25464909  0.86407114  0.95586403    -0.26470
Co114      Co  0.28440018  0.86656856  0.01395231     0.74070
C115        C  0.21812228  0.73591459  0.02562277     0.42150
N116        N  0.14920595  0.80069677  0.10340423     0.00550
N117        N  0.24426701  0.80198033  0.02554856     0.00660
N118        N  0.33656781  0.99133724  0.97364719    -0.47320
H119        H  0.16430507  0.90334677  0.91384057     0.06410
N120        N  0.23981793  0.88948141  0.94461810     0.00940
N121        N  0.31230562  0.86902058  0.07376424     0.00680
C122        C  0.35932986  0.86691797  0.11813839     0.42290
N123        N  0.13478420  0.82564195  0.08920334    -0.25930
C124        C  0.26114176  0.00944746  0.04949786    -0.06850
N125        N  0.10697800  0.85898211  0.00277655    -0.47030
N126        N  0.35329374  0.87848355  0.07770224    -0.47260
C127        C  0.24075826  0.01333038  0.08978664     0.42060
N128        N  0.30857743  0.95598428  0.99363871     0.00930
N129        N  0.20194916  0.88896210  0.14261993    -0.25950
N130        N  0.17370610  0.90373301  0.98380389    -0.26440
N131        N  0.22130841  0.86663717  0.15048379     0.00570
H132        H  0.19141020  0.92911026  0.18415660     0.06460
H133        H  0.30630296  0.83168382  0.17084537     0.06490
N134        N  0.32488519  0.93091064  0.00035624    -0.26490
N135        N  0.21855252  0.78741358  0.05998933    -0.26100
N136        N  0.21074447  0.94995776  0.07229179     0.00930
C137        C  0.22198364  0.84738007  0.89233819     0.42330
C138        C  0.09182475  0.80748614  0.09279328    -0.07350
N139        N  0.28882718  0.85084704  0.10920290    -0.26100
H140        H  0.18188314  0.72717195  0.09015445     0.06480
N141        N  0.21952203  0.88023111  0.90636733    -0.47320
H142        H  0.07293572  0.82308288  0.08816901     0.06470
C143        C  0.22981047  0.89720355  0.21050980     0.42170
C144        C  0.15082735  0.89438586  0.94637570    -0.06850
Co145      Co  0.17316077  0.88730110  0.08005712     0.73820
N146        N  0.11636155  0.76554605  0.11997085    -0.47040
C147        C  0.37454775  0.99134184  0.96809989     0.42430
N148        N  0.21069135  0.97497240  0.10149514    -0.47030
Co149      Co  0.21921440  0.82575140  0.10654412     0.73890
C150        C  0.31604492  0.84787876  0.13940927    -0.07360
C151        C  0.24477204  0.83645467  0.92531822    -0.06920
N152        N  0.23939034  0.96868207  0.04065848    -0.26450
N153        N  0.24582690  0.77205017  0.00473637    -0.47210
H154        H  0.38595286  0.93607137  0.98158514     0.06440
C155        C  0.20491480  0.90898603  0.17947931    -0.07330
Cl156      Cl  0.23009835  0.87807902  0.04816963    -0.50340
C157        C  0.07883387  0.76766225  0.11331469     0.42190
H158        H  0.28743172  0.03331971  0.03029855     0.06410
N159        N  0.23777264  0.87034793  0.19016375    -0.47050
C160        C  0.09443297  0.71933194  0.49061183     0.42040
N161        N  0.13538926  0.78312491  0.50271793     0.00930
C162        C  0.34675441  0.85626479  0.57337380    -0.06940
H163        H  0.23992597  0.73738777  0.65965412     0.06430
C164        C  0.15969120  0.82690854  0.69578893    -0.07290
Co165      Co  0.22716127  0.80174204  0.51244194     0.74180
N166        N  0.23340969  0.77079073  0.60280265    -0.26470
Co167      Co  0.25791984  0.83344601  0.61814549     0.74070
C168        C  0.16918501  0.79794311  0.72116888     0.42150
N169        N  0.12686257  0.84858835  0.59739922     0.00550
N170        N  0.20797684  0.81868407  0.66238211     0.00660
N171        N  0.32451882  0.83711098  0.50436357    -0.47320
H172        H  0.15162706  0.70666163  0.48991144     0.06410
N173        N  0.22166688  0.75975375  0.56216721     0.00940
N174        N  0.28193350  0.89639555  0.63408719     0.00680
C175        C  0.31183219  0.95562353  0.66507306     0.42290
N176        N  0.11340460  0.83414589  0.55835555    -0.25930
C177        C  0.24946834  0.85101652  0.42168862    -0.06850
N178        N  0.09472614  0.75529890  0.49589715    -0.47030
N179        N  0.31412250  0.92021466  0.66090124    -0.47260
C180        C  0.23113458  0.87373420  0.39704680     0.42060
N181        N  0.29304233  0.83626879  0.52802281     0.00930
N182        N  0.18748850  0.90842800  0.51991909    -0.25950
N183        N  0.16173173  0.76749500  0.50148898    -0.26440
N184        N  0.20332637  0.92296547  0.55853374     0.00570
H185        H  0.20055893  0.93632412  0.45513829     0.06460
H186        H  0.25781057  0.96806791  0.64255912     0.06490
N187        N  0.30498952  0.84695052  0.56900891    -0.26490
N188        N  0.18513189  0.83809859  0.66051855    -0.26100
N189        N  0.20357582  0.85766515  0.46130001     0.00930
C190        C  0.21482119  0.70419609  0.59419839     0.42330
C191        C  0.06984360  0.81662596  0.55715742    -0.07350
N192        N  0.25727014  0.91312672  0.62493130    -0.26100
H193        H  0.13966411  0.84021087  0.70365679     0.06480
N194        N  0.21047139  0.72080158  0.55582988    -0.47320
H195        H  0.04985136  0.80335345  0.52867388     0.06470
C196        C  0.23610231  0.97545092  0.51350366     0.42170
C197        C  0.13875370  0.72740576  0.49375316    -0.06850
Co198      Co  0.15900223  0.84545855  0.51000618     0.73820
N199        N  0.09460648  0.84194168  0.62385144    -0.47040
C200        C  0.35993777  0.85019435  0.53018551     0.42430
N201        N  0.20332410  0.87640488  0.42394899    -0.47030
Co202      Co  0.19311206  0.88106211  0.61079365     0.73890
C203        C  0.27484211  0.95067852  0.64017003    -0.07360
C204        C  0.23056074  0.73763774  0.62578940    -0.06920
N205        N  0.23010840  0.84218004  0.46124369    -0.26450
N206        N  0.19940383  0.79459921  0.69780418    -0.47210
H207        H  0.36401591  0.86130837  0.60413556     0.06440
C208        C  0.20413690  0.93955950  0.49011247    -0.07330
Cl209      Cl  0.20965056  0.84058253  0.56282931    -0.50340
C210        C  0.05719640  0.82206830  0.60090489     0.42190
H211        H  0.26993116  0.83927759  0.41016405     0.06410
N212        N  0.23341682  0.96258509  0.55595650    -0.47050
C213        C  0.23465221  0.58981407  0.05002745     0.42040
N214        N  0.21660705  0.52744608  0.07012730     0.00930
C215        C  0.35331741  0.44437236  0.10080630    -0.06940
H216        H  0.37636140  0.52996252  0.95664189     0.06430
C217        C  0.21287067  0.41398049  0.92145689    -0.07290
Co218      Co  0.29395510  0.51797576  0.09666677     0.74180
N219        N  0.33417923  0.51701463  0.01212950    -0.26470
Co220      Co  0.30184792  0.45384361  0.02351760     0.74070
C221        C  0.25251377  0.43523998  0.89554269     0.42150
N222        N  0.15324309  0.42333527  0.00191215     0.00550
N223        N  0.26890026  0.44284490  0.96379354     0.00660
N224        N  0.34416088  0.48135266  0.15231820    -0.47320
H225        H  0.30665617  0.61197423  0.06724494     0.06410
N226        N  0.33085405  0.54096399  0.04052387     0.00940
N227        N  0.27029712  0.39114499  0.03657670     0.00680
C228        C  0.26039533  0.33047398  0.02515891     0.42290
N229        N  0.14890938  0.44925214  0.02658050    -0.25930
C230        C  0.26518992  0.49537565  0.19410633    -0.06850
N231        N  0.20067050  0.55120724  0.05511981    -0.47030
N232        N  0.29043393  0.36972339  0.03183638    -0.47260
C233        C  0.22322811  0.47366422  0.21643375     0.42060
N234        N  0.32757587  0.48515925  0.11396942     0.00930
N235        N  0.15300693  0.40348838  0.10302675    -0.25950
N236        N  0.25902031  0.54802508  0.07617772    -0.26440
N237        N  0.15311465  0.37515130  0.07852607     0.00570
H238        H  0.11839065  0.40163994  0.16028660     0.06460
H239        H  0.18662001  0.30470300  0.01938211     0.06490
N240        N  0.33178280  0.46283828  0.08396501    -0.26490
N241        N  0.22619681  0.41988753  0.96303077    -0.26100
N242        N  0.21268016  0.47651526  0.14745113     0.00930
C243        C  0.37852168  0.58312707  0.99491856     0.42330
C244        C  0.11548402  0.45376577  0.01034149    -0.07350
N245        N  0.22772862  0.36831946  0.03471440    -0.26100
H246        H  0.17966083  0.39525504  0.91081900     0.06480
N247        N  0.35679725  0.58044461  0.03154128    -0.47320
H248        H  0.10228170  0.47071930  0.02591827     0.06470
C249        C  0.10813932  0.34229875  0.13090785     0.42170
C250        C  0.27332394  0.58783216  0.06494132    -0.06850
Co251      Co  0.18242746  0.46490988  0.08661177     0.73820
N252        N  0.12506249  0.40992741  0.96965298    -0.47040
C253        C  0.36190900  0.45670637  0.14583702     0.42430
N254        N  0.19238678  0.46348036  0.18544920    -0.47030
Co255      Co  0.18951628  0.39569835  0.01983272     0.73890
C256        C  0.21823765  0.32915967  0.02873575    -0.07360
C257        C  0.36412938  0.54085707  0.98213742    -0.06920
N258        N  0.25514883  0.49491049  0.15154174    -0.26450
N259        N  0.28608198  0.45196750  0.92403068    -0.47210
H260        H  0.35931473  0.42240966  0.08443324     0.06440
C261        C  0.12721247  0.38582981  0.13705219    -0.07330
Cl262      Cl  0.24186439  0.45802126  0.05658027    -0.50340
C263        C  0.09936552  0.42703767  0.97194391     0.42190
H264        H  0.29771442  0.50951687  0.20735698     0.06410
N265        N  0.12414769  0.33735304  0.09278484    -0.47050
C266        C  0.09760646  0.36833637  0.65591950     0.42040
N267        N  0.13844550  0.39704901  0.60006309     0.00930
C268        C  0.29469603  0.33888236  0.57793455    -0.06940
H269        H  0.32943894  0.44958533  0.68723672     0.06430
C270        C  0.33658983  0.55139487  0.57323293    -0.07290
Co271      Co  0.19347757  0.35757936  0.59651733     0.74180
N272        N  0.27769039  0.41198124  0.64314093    -0.26470
Co273      Co  0.30096836  0.42664047  0.58000124     0.74070
C274        C  0.36931657  0.55452550  0.60475635     0.42150
N275        N  0.22927916  0.50752580  0.54422859     0.00550
N276        N  0.32773318  0.49057084  0.58893779     0.00660
N277        N  0.22251136  0.29794381  0.57940187    -0.47320
H278        H  0.13721046  0.33864122  0.68008195     0.06410
N279        N  0.23664788  0.38385570  0.64917675     0.00940
N280        N  0.31731277  0.43871137  0.51470876     0.00680
C281        C  0.32126913  0.42079310  0.44991165     0.42290
N282        N  0.18792901  0.48134563  0.55273664    -0.25930
C283        C  0.12849698  0.29560190  0.52576549    -0.06850
N284        N  0.10196716  0.39084802  0.61840149    -0.47030
N285        N  0.32754684  0.41504310  0.49245376    -0.47260
C286        C  0.10277299  0.29929710  0.48906378     0.42060
N287        N  0.23298721  0.33707358  0.57318594     0.00930
N288        N  0.18251702  0.43775360  0.47264993    -0.25950
N289        N  0.15515083  0.37721265  0.62227868    -0.26440
N290        N  0.22380208  0.46385354  0.46563138     0.00570
H291        H  0.12785953  0.40689103  0.42868569     0.06460
H292        H  0.29390200  0.46011213  0.41919359     0.06490
N293        N  0.27520544  0.36223200  0.57237678    -0.26490
N294        N  0.31340084  0.51147378  0.56479138    -0.26100
N295        N  0.13782649  0.35751072  0.52031445     0.00930
C296        C  0.26131512  0.40310334  0.71384687     0.42330
C297        C  0.17020799  0.50249116  0.56996357    -0.07350
N298        N  0.30356002  0.45974824  0.48934611    -0.26100
H299        H  0.33360235  0.57585179  0.55595316     0.06480
N300        N  0.22557328  0.37813042  0.69089166    -0.47320
H301        H  0.13677040  0.48926193  0.58010536     0.06470
C302        C  0.19598603  0.45242203  0.40151865     0.42170
C303        C  0.13377842  0.36107360  0.65919752    -0.06850
Co304      Co  0.16065112  0.41850349  0.53647776     0.73820
N305        N  0.24094183  0.54589658  0.55469193    -0.47040
C306        C  0.25928795  0.29586485  0.58342316     0.42430
N307        N  0.10986809  0.33833316  0.48858823    -0.47030
Co308      Co  0.26843449  0.48668001  0.51551137     0.73890
C309        C  0.30600478  0.45084394  0.44757918    -0.07360
C310        C  0.29617406  0.42601857  0.68207511    -0.06920
N311        N  0.14974223  0.33353624  0.54276429    -0.26450
N312        N  0.36226234  0.51542073  0.61261454    -0.47210
H313        H  0.32888701  0.35085991  0.58459782     0.06440
C314        C  0.16192557  0.42823993  0.43371237    -0.07330
Cl315      Cl  0.23087586  0.42240663  0.55712490    -0.50340
C316        C  0.20548867  0.54563105  0.57105270     0.42190
H317        H  0.13045399  0.26879695  0.53773139     0.06410
N318        N  0.23304094  0.47362631  0.42389026    -0.47050
C319        C  0.54193458  0.34242070  0.31709616     0.42040
N320        N  0.48090646  0.30153327  0.34710219     0.00930
C321        C  0.36335739  0.09265789  0.36184252    -0.06940
H322        H  0.45401697  0.14556863  0.21792974     0.06430
C323        C  0.35473108  0.21749569  0.18511968    -0.07290
Co324      Co  0.46175681  0.21491818  0.36047525     0.74180
N325        N  0.45043342  0.17744345  0.27394748    -0.26470
Co326      Co  0.38479853  0.15604711  0.28513323     0.74070
C327        C  0.37020025  0.19561826  0.15888049     0.42150
N328        N  0.37890352  0.28330399  0.27328231     0.00550
N329        N  0.37867259  0.18425716  0.22663549     0.00660
N330        N  0.41148591  0.13168518  0.41309889    -0.47320
H331        H  0.56006217  0.29030607  0.31574088     0.06410
N332        N  0.47958229  0.20037492  0.30275899     0.00940
N333        N  0.31873870  0.13275441  0.29543191     0.00680
C334        C  0.26556978  0.09795079  0.25090419     0.42290
N335        N  0.40831356  0.30618123  0.30199266    -0.25930
C336        C  0.45469747  0.22105389  0.45948225    -0.06850
N337        N  0.50506228  0.33938193  0.33190633    -0.47030
N338        N  0.29568755  0.09671522  0.27741136    -0.47260
C339        C  0.44121147  0.24310521  0.48811573     0.42060
N340        N  0.41911874  0.15195943  0.37457741     0.00930
N341        N  0.35130198  0.25183203  0.37519451    -0.25950
N342        N  0.49923183  0.27822767  0.34398459    -0.26440
N343        N  0.32255885  0.23804770  0.34310912     0.00570
H344        H  0.35935862  0.28668809  0.43142537     0.06460
H345        H  0.25531493  0.15401430  0.24063639     0.06490
N346        N  0.39037865  0.13002399  0.34466929    -0.26490
N347        N  0.36144289  0.20882666  0.22649697    -0.26100
N348        N  0.42747087  0.25292594  0.42070507     0.00930
C349        C  0.51576456  0.18660986  0.25721031     0.42330
C350        C  0.42527441  0.34587275  0.28691551    -0.07350
N351        N  0.30173602  0.15724440  0.28827308    -0.26100
H352        H  0.33841404  0.23461041  0.17496597     0.06480
N353        N  0.51869208  0.20602060  0.29441862    -0.47320
H354        H  0.44939698  0.37273684  0.30338417     0.06470
C355        C  0.30396762  0.27306606  0.38495792     0.42170
C356        C  0.53860531  0.30156716  0.32531144    -0.06850
Co357      Co  0.41692451  0.27834032  0.36193392     0.73820
N358        N  0.37273130  0.30470329  0.24113936    -0.47040
C359        C  0.37737968  0.09350033  0.40704591     0.42430
N360        N  0.42483958  0.26244046  0.46158348    -0.47030
Co361      Co  0.34058021  0.22161951  0.28363151     0.73890
C362        C  0.26803206  0.13768431  0.26047690    -0.07360
C363        C  0.47017461  0.16702661  0.24370677    -0.06920
N364        N  0.44538731  0.22930077  0.41893643    -0.26450
N365        N  0.38402231  0.17522668  0.18661847    -0.47210
H366        H  0.33462634  0.06931471  0.34599219     0.06440
C367        C  0.33834518  0.26798887  0.40565026    -0.07330
Cl368      Cl  0.40077849  0.21756532  0.32298102    -0.50340
C369        C  0.40080551  0.34474655  0.24693306     0.42190
H370        H  0.47171639  0.20411202  0.46732700     0.06410
N371        N  0.29511970  0.25278966  0.34656667    -0.47050
C372        C  0.32884486  0.27253499  0.89553125     0.42040
N373        N  0.35901742  0.25885896  0.84387190     0.00930
C374        C  0.33061489  0.06201571  0.82785089    -0.06940
H375        H  0.39574197  0.13691905  0.97026020     0.06430
C376        C  0.51077389  0.24697640  0.90468754    -0.07290
Co377      Co  0.31888937  0.16672018  0.84055757     0.74180
N378        N  0.36406866  0.14549054  0.91387612    -0.26470
Co379      Co  0.39828621  0.14176314  0.86436422     0.74070
C380        C  0.51950379  0.21776555  0.92889225     0.42150
N381        N  0.48637115  0.29070115  0.82371888     0.00550
N382        N  0.45827550  0.18497086  0.89469238     0.00660
N383        N  0.28526431  0.08080173  0.79459436    -0.47320
H384        H  0.28175095  0.20469722  0.91162558     0.06410
N385        N  0.33278324  0.15464016  0.90687005     0.00940
N386        N  0.42742111  0.13791828  0.80866655     0.00680
C387        C  0.46150179  0.10445816  0.82531551     0.42290
N388        N  0.45579256  0.30095548  0.81887252    -0.25930
C389        C  0.27764762  0.16928160  0.74577059    -0.06850
N390        N  0.36025440  0.29024907  0.86452166    -0.47030
N391        N  0.42474660  0.10144191  0.80950152    -0.47260
C392        C  0.29435464  0.19886526  0.70771069     0.42060
N393        N  0.31268296  0.10982322  0.82119484     0.00930
N394        N  0.43313866  0.25366703  0.74142497    -0.25950
N395        N  0.32851843  0.22282937  0.85986565    -0.26440
N396        N  0.46090436  0.23953996  0.74721357     0.00570
H397        H  0.41013234  0.27352379  0.68523177     0.06460
H398        H  0.52368196  0.16647131  0.83559128     0.06490
N399        N  0.34108022  0.10009859  0.83783821    -0.26490
N400        N  0.47749548  0.22304853  0.87950093    -0.26100
N401        N  0.34154450  0.21911738  0.75933862     0.00930
C402        C  0.34233246  0.15472630  0.97700138     0.42330
C403        C  0.47418333  0.34230325  0.82075925    -0.07350
N404        N  0.46703586  0.16856617  0.80900500    -0.26100
H405        H  0.53495585  0.27816249  0.89534927     0.06480
N406        N  0.31953083  0.16174730  0.94445406    -0.47320
H407        H  0.45828572  0.36005127  0.81170632     0.06470
C408        C  0.45962513  0.25132374  0.67756074     0.42170
C409        C  0.30769606  0.22858301  0.89209658    -0.06850
Co410      Co  0.39713267  0.25894168  0.79150527     0.73820
N411        N  0.52549443  0.32321003  0.82835619    -0.47040
C412        C  0.29524855  0.04951841  0.79749509     0.42430
N413        N  0.33335182  0.22862224  0.71976181    -0.47030
Co414      Co  0.47428260  0.23050169  0.81391536     0.73890
C415        C  0.49102654  0.15036188  0.82320836    -0.07360
C416        C  0.37098449  0.14301303  0.95629995    -0.06920
N417        N  0.31015408  0.18406493  0.77582459    -0.26450
N418        N  0.48336235  0.17997431  0.92439946    -0.47210
H419        H  0.34989356  0.04731105  0.83519194     0.06440
C420        C  0.43071387  0.26208019  0.69920015    -0.07330
Cl421      Cl  0.39685531  0.19973265  0.82736100    -0.50340
C422        C  0.52073084  0.35711642  0.82760542     0.42190
H423        H  0.24633709  0.14194770  0.75007608     0.06410
N424        N  0.47776616  0.23751469  0.70927712    -0.47050
C425        C  0.63790351  0.72664243  0.17262361     0.42040
N426        N  0.65969749  0.78109319  0.13171076     0.00930
C427        C  0.55316881  0.89100372  0.07670596    -0.06940
H428        H  0.54031930  0.78608646  0.97085267     0.06430
C429        C  0.69193192  0.84972923  0.94365257    -0.07290
Co430      Co  0.59675817  0.81263682  0.12742059     0.74180
N431        N  0.56746909  0.80307240  0.03539640    -0.26470
Co432      Co  0.61293758  0.86552143  0.02895296     0.74070
C433        C  0.64956672  0.82911512  0.92178805     0.42150
N434        N  0.74431158  0.85050198  0.04104014     0.00550
N435        N  0.64258279  0.85234081  0.98126160     0.00660
N436        N  0.54137128  0.85346418  0.13953272    -0.47320
H437        H  0.57233798  0.72403495  0.18376972     0.06410
N438        N  0.56187515  0.78182292  0.07257652     0.00940
N439        N  0.66142099  0.92727303  0.02094001     0.00680
C440        C  0.69928202  0.98815437  0.99174924     0.42290
N441        N  0.73671389  0.82950133  0.07848733    -0.25930
C442        C  0.62592613  0.86063854  0.21246785    -0.06850
N443        N  0.67064646  0.75422763  0.14773006    -0.47030
N444        N  0.65818543  0.95673876  0.99804685    -0.47260
C445        C  0.66669785  0.88191417  0.23636559     0.42060
N446        N  0.57339292  0.85429022  0.11677870     0.00930
N447        N  0.75445357  0.90150710  0.12362580    -0.25950
N448        N  0.61931447  0.77089290  0.14020321    -0.26440
N449        N  0.76048311  0.92402372  0.08769911     0.00570
H450        H  0.78314210  0.91381041  0.18746329     0.06460
H451        H  0.76259329  0.98814194  0.00644070     0.06490
N452        N  0.58052197  0.87553719  0.07939312    -0.26490
N453        N  0.68406954  0.86308139  0.98075468    -0.26100
N454        N  0.67704758  0.85736986  0.17816302     0.00930
C455        C  0.51946510  0.73744762  0.02707556     0.42330
C456        C  0.75616671  0.80633679  0.07845462    -0.07350
N457        N  0.70243794  0.93679323  0.02619515    -0.26100
H458        H  0.72307432  0.85422060  0.93328508     0.06480
N459        N  0.53348037  0.74214591  0.06907444    -0.47320
H460        H  0.75749486  0.78760772  0.10579001     0.06470
C461        C  0.80517797  0.96545193  0.13462341     0.42170
C462        C  0.60268287  0.73661802  0.16623549    -0.06850
Co463      Co  0.70665653  0.84169663  0.12859700     0.73820
N464        N  0.76908485  0.84340248  0.01456342    -0.47040
C465        C  0.52694785  0.87631890  0.11686919     0.42430
N466        N  0.69677233  0.87857078  0.21314752    -0.47030
Co467      Co  0.72348243  0.89434885  0.03306767     0.73890
C468        C  0.72811146  0.97514494  0.01189081    -0.07360
C469        C  0.54186674  0.77762442  0.00477631    -0.06920
N470        N  0.63547642  0.84639136  0.17738327    -0.26450
N471        N  0.62118718  0.83199193  0.94710646    -0.47210
H472        H  0.54717938  0.90464235  0.04731580     0.06440
C473        C  0.78224886  0.92414772  0.15407446    -0.07330
Cl474      Cl  0.66003028  0.85384693  0.07950749    -0.50340
C475        C  0.77806153  0.81591685  0.03620743     0.42190
H476        H  0.59400165  0.85522614  0.22116062     0.06410
N477        N  0.78959603  0.96329487  0.09317692    -0.47050
C478        C  0.78383717  0.86444675  0.66746858     0.42040
N479        N  0.75588359  0.88117330  0.61177047     0.00930
C480        C  0.58871999  0.92601621  0.63305855    -0.06940
H481        H  0.56921908  0.78384887  0.71224612     0.06430
C482        C  0.56326484  0.72401791  0.58072634    -0.07290
Co483      Co  0.69751296  0.91119237  0.64201028     0.74180
N484        N  0.61842372  0.83849281  0.67909962    -0.26470
Co485      Co  0.58949901  0.84042131  0.62189696     0.74070
C486        C  0.53045704  0.71003419  0.61496213     0.42150
N487        N  0.67155264  0.79018721  0.53863259     0.00550
N488        N  0.56854840  0.77672738  0.61385244     0.00660
N489        N  0.65998128  0.96765923  0.64494890    -0.47320
H490        H  0.75494136  0.89009518  0.71527361     0.06410
N491        N  0.65937103  0.86467270  0.68767394     0.00940
N492        N  0.56357679  0.84156598  0.56250291     0.00680
C493        C  0.51295863  0.83607744  0.51876258     0.42290
N494        N  0.71155057  0.82042835  0.54418501    -0.25930
C495        C  0.74014595  0.99301887  0.58536978    -0.06850
N496        N  0.77868250  0.86262467  0.62327576    -0.47030
N497        N  0.53067803  0.84860326  0.55810867    -0.47260
C498        C  0.75511432  0.00390645  0.54022068     0.42060
N499        N  0.65136188  0.92959824  0.63807348     0.00930
N500        N  0.69689581  0.87872111  0.49060912    -0.25950
N501        N  0.74409866  0.89337299  0.64611303    -0.26440
N502        N  0.65598265  0.85041425  0.48500317     0.00570
H503        H  0.74438845  0.92515564  0.44668783     0.06460
H504        H  0.53353835  0.80416894  0.46789545     0.06490
N505        N  0.60996417  0.90400751  0.63081031    -0.26490
N506        N  0.58393976  0.76515252  0.58162540    -0.26100
N507        N  0.74305793  0.94238417  0.55670838     0.00930
C508        C  0.63767035  0.82006442  0.74068079     0.42330
C509        C  0.73938787  0.80592950  0.54410540    -0.07350
N510        N  0.57022342  0.82464654  0.52836923    -0.26100
H511        H  0.56605814  0.70648430  0.55481827     0.06480
N512        N  0.67202971  0.85506857  0.72511866    -0.47320
H513        H  0.77411537  0.82525166  0.54528285     0.06470
C514        C  0.67425455  0.88311603  0.42319290     0.42170
C515        C  0.76165821  0.88594581  0.68210512    -0.06850
Co516      Co  0.72791145  0.88126806  0.55022472     0.73820
N517        N  0.67118501  0.75415250  0.53498850    -0.47040
C518        C  0.62273691  0.96883949  0.64183903     0.42430
N519        N  0.75587995  0.97082528  0.52466472    -0.47030
Co520      Co  0.62019930  0.80660182  0.53266514     0.73890
C521        C  0.53899803  0.81954302  0.49853714    -0.07360
C522        C  0.60192619  0.80957788  0.71082612    -0.06920
N523        N  0.73242357  0.95416093  0.59231001    -0.26450
N524        N  0.53562465  0.74455573  0.63399396    -0.47210
H525        H  0.55406273  0.91367232  0.62962761     0.06440
C526        C  0.71152792  0.90086639  0.45290771    -0.07330
Cl527      Cl  0.65858083  0.85973188  0.58641455    -0.50340
C528        C  0.71328263  0.76167127  0.53955520     0.42190
H529        H  0.73152619  0.01006478  0.60703582     0.06410
N530        N  0.64143854  0.85185176  0.44537848    -0.47050
C531        C  0.94485770  0.28902803  0.20777053     0.42040
N532        N  0.90538369  0.26867854  0.26614445     0.00930
C533        C  0.76934341  0.05947474  0.29466485    -0.06940
H534        H  0.72816739  0.12822249  0.17545028     0.06430
C535        C  0.69713638  0.20761795  0.27613943    -0.07290
Co536      Co  0.86358847  0.17723682  0.27258442     0.74180
N537        N  0.77987941  0.14413682  0.22228982    -0.26470
Co538      Co  0.75221619  0.13152786  0.28402587     0.74070
C539        C  0.66981487  0.17849839  0.24363181     0.42150
N540        N  0.80058602  0.27270122  0.31384875     0.00550
N541        N  0.71750632  0.16230721  0.26769098     0.00660
N542        N  0.84133628  0.09095926  0.28632062    -0.47320
H543        H  0.92048203  0.22308798  0.18751847     0.06410
N544        N  0.82225643  0.16009261  0.21828495     0.00940
N545        N  0.72915471  0.12248129  0.34726551     0.00680
C546        C  0.71537397  0.09822519  0.41341083     0.42290
N547        N  0.84317914  0.29117314  0.30920781    -0.25930
C548        C  0.93293790  0.18600434  0.34740128    -0.06850
N549        N  0.93624893  0.30207990  0.24548410    -0.47030
N550        N  0.71814112  0.08885655  0.37193919    -0.47260
C551        C  0.95324834  0.21431785  0.38381173     0.42060
N552        N  0.82873680  0.11761094  0.29640904     0.00930
N553        N  0.85030643  0.25328930  0.39055051    -0.25950
N554        N  0.89670928  0.23512110  0.24570443    -0.26440
N555        N  0.80776511  0.23500941  0.39452802     0.00570
H556        H  0.90248079  0.28417991  0.43712781     0.06460
H557        H  0.73221987  0.16123108  0.43946602     0.06490
N558        N  0.78614868  0.10005112  0.29941009    -0.26490
N559        N  0.72485241  0.19477753  0.28952224    -0.26100
N560        N  0.90924863  0.22947386  0.34919264     0.00930
C561        C  0.79910436  0.15534066  0.15219985     0.42330
C562        C  0.85788014  0.33141922  0.30114890    -0.07350
N563        N  0.73525735  0.15425960  0.37007692    -0.26100
H564        H  0.69335766  0.23162144  0.29092854     0.06480
N565        N  0.83494730  0.16753573  0.17704395    -0.47320
H566        H  0.89171459  0.35492418  0.30103367     0.06470
C567        C  0.83092682  0.25543126  0.45852196     0.42170
C568        C  0.91840137  0.24486654  0.20836043    -0.06850
Co569      Co  0.87793179  0.26156793  0.32867617     0.73820
N570        N  0.78526504  0.29861761  0.31044728    -0.47040
C571        C  0.80564315  0.05409777  0.28119043     0.42430
N572        N  0.93719388  0.24041742  0.38193149    -0.47030
Co573      Co  0.76649948  0.21421821  0.34212845     0.73890
C574        C  0.72645246  0.14161160  0.41218974    -0.07360
C575        C  0.76228752  0.14002877  0.18227614    -0.06920
N576        N  0.90530530  0.19738477  0.32829339    -0.26450
N577        N  0.68354730  0.15037480  0.24106400    -0.47210
H578        H  0.73512286  0.03834683  0.29061657     0.06440
C579        C  0.86814677  0.26666244  0.43004573    -0.07330
Cl580      Cl  0.81511798  0.19611462  0.30699595    -0.49620
C581        C  0.81928892  0.33632100  0.30253142     0.42190
H582        H  0.93866569  0.16167789  0.33682691     0.06410
N583        N  0.79496021  0.23600192  0.43432999    -0.47050
C584        C  0.82057376  0.36833632  0.80294946     0.42040
N585        N  0.82736803  0.31755336  0.78303927     0.00930
C586        C  0.68125542  0.11081282  0.76939093    -0.06940
H587        H  0.68684672  0.17855243  0.92088697     0.06430
C588        C  0.83830354  0.20369895  0.93718179    -0.07290
Co589      Co  0.74580315  0.23983936  0.76801848     0.74180
N590        N  0.71553631  0.20012658  0.85695206    -0.26470
Co591      Co  0.74301027  0.16491484  0.84047140     0.74070
C592        C  0.80009205  0.18738008  0.96520925     0.42150
N593        N  0.89206514  0.27170906  0.85275998     0.00550
N594        N  0.78005418  0.18081652  0.89783551     0.00660
N595        N  0.68521834  0.15815340  0.71832852    -0.47320
H596        H  0.74549363  0.32969422  0.79986620     0.06410
N597        N  0.71804887  0.22940540  0.82962982     0.00940
N598        N  0.77285841  0.13223768  0.82184949     0.00680
C599        C  0.77948581  0.07848795  0.83581129     0.42290
N600        N  0.89151782  0.30019491  0.82622293    -0.25930
C601        C  0.76505949  0.24403536  0.66665999    -0.06850
N602        N  0.84926348  0.35601986  0.79457788    -0.47030
N603        N  0.75136103  0.09176822  0.82510244    -0.47260
C604        C  0.80526957  0.25836736  0.64182533     0.42060
N605        N  0.70773852  0.17616000  0.75420077     0.00930
N606        N  0.88204581  0.24878893  0.75019307    -0.25950
N607        N  0.78508569  0.30239438  0.78319958    -0.26440
N608        N  0.88898448  0.22514614  0.77846518     0.00570
H609        H  0.91304564  0.28233947  0.69185100     0.06460
H610        H  0.85330317  0.11898044  0.84448996     0.06490
N611        N  0.70653215  0.14880645  0.78370244    -0.26490
N612        N  0.82264920  0.19807160  0.89644876    -0.26100
N613        N  0.82091327  0.26881816  0.70942798     0.00930
C614        C  0.68512061  0.23377716  0.88596427     0.42330
C615        C  0.91820948  0.33725045  0.84298864    -0.07350
N616        N  0.81526832  0.14763603  0.82529436    -0.26100
H617        H  0.87222979  0.21665023  0.94565374     0.06480
N618        N  0.70129739  0.25062037  0.84603619    -0.47320
H619        H  0.92640798  0.36682846  0.82767877     0.06470
C620        C  0.93825331  0.24486367  0.72886834     0.42170
C621        C  0.77718559  0.33256257  0.79574470    -0.06850
Co622      Co  0.85577862  0.28419018  0.76702740     0.73820
N623        N  0.91893401  0.28720069  0.88628122    -0.47040
C624        C  0.66700599  0.11662925  0.72620235     0.42430
N625        N  0.83822069  0.27362113  0.67040454    -0.47030
Co626      Co  0.85559093  0.21022296  0.83827947     0.73890
C627        C  0.82270867  0.11580194  0.83292340    -0.07360
C628        C  0.69479263  0.20002479  0.89325142    -0.06920
N629        N  0.77828886  0.25141804  0.70856756    -0.26450
N630        N  0.76515106  0.17338518  0.93845092    -0.47210
H631        H  0.67560384  0.08247111  0.78619176     0.06440
C632        C  0.90771167  0.25819337  0.71592110    -0.07330
Cl633      Cl  0.79997122  0.22468473  0.80326008    -0.50340
C634        C  0.93629307  0.32859068  0.88289313     0.42190
H635        H  0.73180457  0.22947653  0.65532208     0.06410
N636        N  0.92474984  0.22405887  0.76815038    -0.47050
C637        C  0.84858554  0.24611594  0.53484008    -0.09570
C638        C  0.82913839  0.26157693  0.50512429     0.06630
C639        C  0.80167108  0.27590969  0.52042983    -0.03340
C640        C  0.79303398  0.27346536  0.56510775    -0.07790
C641        C  0.81177207  0.25719959  0.59484689     0.05740
C642        C  0.83990339  0.24356301  0.57948847    -0.02810
Br643      Br  0.86407378  0.21746482  0.61714818    -0.02510
H644        H  0.86859245  0.23387671  0.52309831     0.09650
H645        H  0.77236030  0.28501088  0.57671590     0.07670
Br646      Br  0.77635641  0.30031943  0.48168060    -0.02930
C647        C  0.76211290  0.15943742  0.08366677    -0.09570
C648        C  0.79954528  0.16287578  0.10429561     0.06630
C649        C  0.83679541  0.17430305  0.07864560    -0.03340
C650        C  0.83642304  0.18369358  0.03412419    -0.07790
C651        C  0.79897917  0.18015793  0.01331445     0.05740
C652        C  0.76123595  0.16719654  0.03867848    -0.02810
Br653      Br  0.70674353  0.15771745  0.01477672    -0.02510
H654        H  0.73299387  0.15035561  0.10239974     0.09650
H655        H  0.86539937  0.19199891  0.01552894     0.07670
Br656      Br  0.88854734  0.17488036  0.10040664    -0.02930
C657        C  0.65446685  0.04492699  0.63570527    -0.09570
C658        C  0.62165324  0.00694466  0.65331479     0.06630
C659        C  0.59796653  0.00769928  0.68939786    -0.03340
C660        C  0.61033689  0.04515094  0.70977689    -0.07790
C661        C  0.64596049  0.08254084  0.69475372     0.05740
C662        C  0.66660892  0.08244207  0.65584798    -0.02810
Br663      Br  0.71591252  0.13126768  0.63271756    -0.02510
H664        H  0.67338273  0.04502297  0.60819728     0.09650
H665        H  0.59422060  0.04448791  0.73979619     0.07670
Br666      Br  0.55313997  0.95799521  0.71640651    -0.02930
C667        C  0.77809339  0.06655002  0.49263245    -0.09570
C668        C  0.74449311  0.03020730  0.51126673     0.06630
C669        C  0.70106042  0.01772295  0.49937463    -0.03340
C670        C  0.69197131  0.04150854  0.46892846    -0.07790
C671        C  0.72555162  0.07757632  0.44993212     0.05740
C672        C  0.76898974  0.09021866  0.46194062    -0.02810
Br673      Br  0.81718331  0.13758622  0.43487696    -0.02510
H674        H  0.81151893  0.07587683  0.50099761     0.09650
H675        H  0.65869670  0.03106734  0.45892121     0.07670
Br676      Br  0.65311943  0.96699525  0.52114284    -0.02930
C677        C  0.83871354  0.02284820  0.23711079    -0.09570
C678        C  0.80475089  0.03181077  0.24173924     0.06630
C679        C  0.77710922  0.02657984  0.20506224    -0.03340
C680        C  0.78264219  0.01062850  0.16676168    -0.07790
C681        C  0.81439065  0.99886867  0.16384025     0.05740
C682        C  0.84354487  0.00640365  0.19870543    -0.02810
Br683      Br  0.88871801  0.99212041  0.19581655    -0.02510
H684        H  0.86149030  0.02843088  0.26369800     0.09650
H685        H  0.75943481  0.00399805  0.14033502     0.07670
Br686      Br  0.73041470  0.03911893  0.20218369    -0.02930
C687        C  0.70439858  0.99226617  0.91086988    -0.09570
C688        C  0.71512168  0.01249902  0.95080839     0.06630
C689        C  0.75143257  0.05195984  0.95288413    -0.03340
C690        C  0.77633354  0.07098591  0.91569041    -0.07790
C691        C  0.76530358  0.05144303  0.87529379     0.05740
C692        C  0.72907330  0.01160137  0.87321114    -0.02810
Br693      Br  0.71193211  0.98322662  0.81919060    -0.02510
H694        H  0.67795571  0.96084247  0.90935659     0.09650
H695        H  0.80271563  0.10235830  0.91790493     0.07670
Br696      Br  0.76865683  0.08002917  0.00695878    -0.02930
C697        C  0.66455073  0.80456288  0.85475086    -0.09570
C698        C  0.63983094  0.81829470  0.87641384     0.06630
C699        C  0.60731744  0.82341997  0.85344213    -0.03340
C700        C  0.60394584  0.81920181  0.80871714    -0.07790
C701        C  0.63206012  0.81003184  0.78678640     0.05740
C702        C  0.66015318  0.79987918  0.80986687    -0.02810
Br703      Br  0.69169828  0.77889760  0.78090392    -0.02510
H704        H  0.68787197  0.79852729  0.87242887     0.09650
H705        H  0.58186493  0.82670504  0.79059449     0.07670
Br706      Br  0.56968467  0.84134923  0.87786461    -0.02930
C707        C  0.69098476  0.92105877  0.30451433    -0.09570
C708        C  0.66912078  0.88310323  0.28392816     0.06630
C709        C  0.65053268  0.84599801  0.30913657    -0.03340
C710        C  0.65364083  0.84728961  0.35428957    -0.07790
C711        C  0.67474860  0.88498024  0.37530060     0.05740
C712        C  0.69356635  0.92224442  0.35028617    -0.02810
Br713      Br  0.71997577  0.97488052  0.37702444    -0.02510
H714        H  0.70531442  0.94964153  0.28506573     0.09650
H715        H  0.63933065  0.81837435  0.37315389     0.07670
Br716      Br  0.62081697  0.79231377  0.28428492    -0.02930
C717        C  0.62126624  0.23922462  0.86809206    -0.09570
C718        C  0.64546604  0.23296962  0.90080726     0.06630
C719        C  0.62978661  0.22446033  0.94407624    -0.03340
C720        C  0.58829240  0.21894096  0.95289780    -0.07790
C721        C  0.56319286  0.22356699  0.91917355     0.05740
C722        C  0.58185538  0.23612874  0.87632105    -0.02810
Br723      Br  0.56031453  0.25176958  0.82428729    -0.02510
H724        H  0.63290790  0.24650893  0.83466417     0.09650
H725        H  0.57597727  0.21178428  0.98607606     0.07670
Br726      Br  0.66520718  0.22453115  0.99209379    -0.02930
C727        C  0.57516182  0.19291023  0.20985726    -0.09570
C728        C  0.54813479  0.17432083  0.24627877     0.06630
C729        C  0.55753156  0.15002675  0.27637823    -0.03340
C730        C  0.59530186  0.14733731  0.27161363    -0.07790
C731        C  0.62449922  0.16912987  0.23755179     0.05740
C732        C  0.61341412  0.19064562  0.20551326    -0.02810
Br733      Br  0.65168125  0.22042159  0.15778101    -0.02510
H734        H  0.56829920  0.21176110  0.18663416     0.09650
H735        H  0.60384588  0.13122588  0.29683650     0.07670
Br736      Br  0.52203762  0.12322873  0.32695670    -0.02930
C737        C  0.45439902  0.28088172  0.60499231    -0.09570
C738        C  0.46307369  0.25246760  0.62885496     0.06630
C739        C  0.46744966  0.22286966  0.60549350    -0.03340
C740        C  0.46068972  0.22079802  0.55989970    -0.07790
C741        C  0.44933676  0.24772758  0.53641364     0.05740
C742        C  0.44694306  0.27852974  0.55979713    -0.02810
Br743      Br  0.43283112  0.31823018  0.53324847    -0.02510
H744        H  0.45179012  0.30460260  0.62191115     0.09650
H745        H  0.46306537  0.19693321  0.54310975     0.07670
Br746      Br  0.47968975  0.18286684  0.63413025    -0.02930
C747        C  0.38949827  0.18056900  0.04236933    -0.09570
C748        C  0.34890421  0.16910688  0.02257021     0.06630
C749        C  0.31628998  0.16991127  0.04757833    -0.03340
C750        C  0.32410179  0.18002240  0.09185103    -0.07790
C751        C  0.36390670  0.18889578  0.11168395     0.05740
C752        C  0.39691563  0.18974822  0.08637630    -0.02810
Br753      Br  0.45328745  0.20422245  0.10995956    -0.02510
H754        H  0.41610584  0.18232768  0.02384709     0.09650
H755        H  0.29843602  0.17936007  0.11122595     0.07670
Br756      Br  0.26014884  0.15543102  0.02396511    -0.02930
C757        C  0.42822594  0.61920227  0.57196883    -0.09570
C758        C  0.41157814  0.59308642  0.60928038     0.06630
C759        C  0.43354969  0.60643483  0.64943330    -0.03340
C760        C  0.47192895  0.64496763  0.65129145    -0.07790
C761        C  0.48857767  0.67071962  0.61353086     0.05740
C762        C  0.46546899  0.65764669  0.57379202    -0.02810
Br763      Br  0.48032766  0.69169815  0.52101572    -0.02510
H764        H  0.41168171  0.61002258  0.54081648     0.09650
H765        H  0.48882772  0.65475299  0.68218983     0.07670
Br766      Br  0.41089050  0.57427095  0.70256380    -0.02930
C767        C  0.28970653  0.24886901  0.60138147    -0.09570
C768        C  0.26099500  0.26308979  0.61179949     0.06630
C769        C  0.23578276  0.24698795  0.65063481    -0.03340
C770        C  0.24188388  0.21964863  0.67907003    -0.07790
C771        C  0.27311452  0.20818099  0.67024165     0.05740
C772        C  0.29560223  0.22151842  0.62998240    -0.02810
Br773      Br  0.33799064  0.20602852  0.61484248    -0.02510
H774        H  0.30881885  0.26023629  0.57170039     0.09650
H775        H  0.22557700  0.21101535  0.71047225     0.07670
Br776      Br  0.19696503  0.26517237  0.67089591    -0.02930
C777        C  0.34696212  0.38816317  0.40068274    -0.09570
C778        C  0.31146854  0.38769173  0.41948212     0.06630
C779        C  0.27133412  0.35065410  0.42052549    -0.03340
C780        C  0.26801698  0.31428520  0.40409193    -0.07790
C781        C  0.30510879  0.31363551  0.38935825     0.05740
C782        C  0.34505448  0.35181497  0.38803184    -0.02810
Br783      Br  0.40147669  0.35821644  0.37991374    -0.02510
H784        H  0.37817414  0.41615102  0.40160432     0.09650
H785        H  0.23753552  0.28571785  0.40714116     0.07670
Br786      Br  0.22249077  0.34726262  0.45033895    -0.02930
C787        C  0.03267785  0.24175875  0.39280857    -0.09570
C788        C  0.99129696  0.22289063  0.41183704     0.06630
C789        C  0.98812382  0.22375106  0.45768189    -0.03340
C790        C  0.02560090  0.24493829  0.48330057    -0.07790
C791        C  0.06672547  0.26675891  0.46384454     0.05740
C792        C  0.07009901  0.26414681  0.41825902    -0.02810
Br793      Br  0.12451073  0.29418771  0.38842220    -0.02510
H794        H  0.03569445  0.24257791  0.35754260     0.09650
H795        H  0.02220749  0.24738032  0.51802305     0.07670
Br796      Br  0.93278470  0.20019108  0.48614141    -0.02930
C797        C  0.03687824  0.34739595  0.70479154    -0.09570
C798        C  0.05622056  0.33635819  0.67318396     0.06630
C799        C  0.03979723  0.29416653  0.66421965    -0.03340
C800        C  0.00408902  0.26383237  0.68738977    -0.07790
C801        C  0.98353581  0.27486860  0.71835848     0.05740
C802        C  0.00034542  0.31753751  0.72653048    -0.02810
Br803      Br  0.97241519  0.33969953  0.76044652    -0.02510
H804        H  0.04975672  0.37967769  0.71187516     0.09650
H805        H  0.99034930  0.23183945  0.67876823     0.07670
Br806      Br  0.06265238  0.27599886  0.61889774    -0.02930
C807        C  0.48992790  0.66236606  0.02238548    -0.09570
C808        C  0.48814305  0.69787035  0.00839519     0.06630
C809        C  0.45442917  0.69406252  0.97992914    -0.03340
C810        C  0.42102899  0.65486216  0.96987696    -0.07790
C811        C  0.42079369  0.61947030  0.98745029     0.05740
C812        C  0.45668472  0.62327163  0.01190533    -0.02810
Br813      Br  0.45849382  0.57610015  0.03746861    -0.02510
H814        H  0.51605384  0.66492649  0.04356304     0.09650
H815        H  0.39294787  0.65203360  0.95196437     0.07670
Br816      Br  0.44767811  0.74000983  0.95922243    -0.02930
C817        C  0.41573691  0.44096297  0.18270049    -0.09570
C818        C  0.37275141  0.43356819  0.17972478     0.06630
C819        C  0.33969729  0.39754072  0.20027780    -0.03340
C820        C  0.35009834  0.37077006  0.22463409    -0.07790
C821        C  0.39299614  0.37775755  0.22707990     0.05740
C822        C  0.42581340  0.41302377  0.20536233    -0.02810
Br823      Br  0.48273209  0.42001854  0.19882450    -0.02510
H824        H  0.44104265  0.46685591  0.16442273     0.09650
H825        H  0.32404823  0.34290815  0.23952310     0.07670
Br826      Br  0.27940502  0.37996539  0.18994137    -0.02930
C827        C  0.28209248  0.30020286  0.91626183    -0.09570
C828        C  0.31589951  0.29237486  0.92762579     0.06630
C829        C  0.32721965  0.29190915  0.97192491    -0.03340
C830        C  0.30580506  0.30095507  0.00399951    -0.07790
C831        C  0.27205407  0.30928805  0.99278928     0.05740
C832        C  0.26010198  0.30859486  0.94817270    -0.02810
Br833      Br  0.21554521  0.32018900  0.92731937    -0.02510
H834        H  0.27181806  0.29849209  0.88238976     0.09650
H835        H  0.31636529  0.30264692  0.03775652     0.07670
Br836      Br  0.37140797  0.27859423  0.98994495    -0.02930
C837        C  0.22647591  0.38978932  0.83231455    -0.09570
C838        C  0.25642690  0.42798202  0.84913984     0.06630
C839        C  0.28930010  0.45751238  0.82156375    -0.03340
C840        C  0.29121991  0.44856260  0.77782429    -0.07790
C841        C  0.26084964  0.41033055  0.76097663     0.05740
C842        C  0.22871921  0.38048290  0.78913741    -0.02810
Br843      Br  0.18781078  0.32552700  0.77211814    -0.02510
H844        H  0.20131291  0.36643041  0.85302095     0.09650
H845        H  0.31583820  0.47209927  0.75672192     0.07670
Br846      Br  0.33030244  0.51141052  0.84091192    -0.02930
C847        C  0.17683666  0.46291639  0.28087923    -0.09570
C848        C  0.21364781  0.46333008  0.26343395     0.06630
C849        C  0.23988066  0.45364644  0.29135577    -0.03340
C850        C  0.23067874  0.44658913  0.33585766    -0.07790
C851        C  0.19619575  0.44955154  0.35380053     0.05740
C852        C  0.16816765  0.45646690  0.32588355    -0.02810
Br853      Br  0.12052931  0.46132136  0.34791223    -0.02510
H854        H  0.15585373  0.46955927  0.25975568     0.09650
H855        H  0.25169428  0.43999031  0.35696298     0.07670
Br856      Br  0.28831542  0.44867411  0.27199442    -0.02930
C857        C  0.97995985  0.38363953  0.93602415    -0.09570
C858        C  0.97811455  0.35729991  0.90335920     0.06630
C859        C  0.01638818  0.35740667  0.89174754    -0.03340
C860        C  0.05547781  0.38398994  0.91169909    -0.07790
C861        C  0.05765766  0.40854463  0.94666013     0.05740
C862        C  0.01900397  0.40843288  0.95854858    -0.02810
Br863      Br  0.01547869  0.43816791  0.00653862    -0.02510
H864        H  0.95046976  0.38339671  0.94553376     0.09650
H865        H  0.08417227  0.38313690  0.90139795     0.07670
Br866      Br  0.01727954  0.31929452  0.85185072    -0.02930
C867        C  0.02933941  0.31158585  0.12253887    -0.09570
C868        C  0.06454370  0.31677261  0.14885860     0.06630
C869        C  0.06014414  0.31444343  0.19475176    -0.03340
C870        C  0.02212614  0.30936335  0.21361466    -0.07790
C871        C  0.98763270  0.30593786  0.18735653     0.05740
C872        C  0.99099782  0.30595545  0.14147540    -0.02810
Br873      Br  0.94425090  0.29941261  0.10349617    -0.02510
H874        H  0.03284014  0.31511182  0.08726093     0.09650
H875        H  0.01897995  0.30679450  0.24893571     0.07670
Br876      Br  0.10695181  0.32135130  0.23287445    -0.02930
C877        C  0.40178643  0.81396493  0.54991320    -0.09570
C878        C  0.39565655  0.84111753  0.52135467     0.06630
C879        C  0.42343069  0.85852399  0.48484660    -0.03340
C880        C  0.45981643  0.85277822  0.48058032    -0.07790
C881        C  0.46784529  0.82814701  0.51129600     0.05740
C882        C  0.43676187  0.80674100  0.54461523    -0.02810
Br883      Br  0.44255542  0.76942378  0.58605772    -0.02510
H884        H  0.37962373  0.79872529  0.57697891     0.09650
H885        H  0.48336946  0.86987226  0.45511476     0.07670
Br886      Br  0.41485178  0.89310970  0.44224105    -0.02930
C887        C  0.17260501  0.62944983  0.57896183    -0.09570
C888        C  0.20995142  0.66191571  0.59730173     0.06630
C889        C  0.24424195  0.65455451  0.61005393    -0.03340
C890        C  0.24134832  0.61608156  0.60264823    -0.07790
C891        C  0.20442941  0.58391093  0.58302384     0.05740
C892        C  0.16937188  0.59087363  0.57203677    -0.02810
Br893      Br  0.11817333  0.55133049  0.54255977    -0.02510
H894        H  0.14631432  0.63476579  0.56804511     0.09650
H895        H  0.26877655  0.61170260  0.61115090     0.07670
Br896      Br  0.29756677  0.69720738  0.63324583    -0.02930
C897        C  0.29496546  0.99306838  0.45989632    -0.09570
C898        C  0.27773887  0.00635392  0.49265644     0.06630
C899        C  0.29970245  0.04845738  0.50281537    -0.03340
C900        C  0.33519399  0.07690713  0.47700786    -0.07790
C901        C  0.34943462  0.06364838  0.44149799     0.05740
C902        C  0.33025334  0.02109134  0.43458032    -0.02810
Br903      Br  0.35023530  0.99948857  0.38993074    -0.02510
H904        H  0.28020368  0.96061172  0.45296599     0.09650
H905        H  0.34977399  0.10955592  0.48294192     0.07670
Br906      Br  0.28048034  0.06868068  0.54929551    -0.02930
C907        C  0.33524140  0.02209860  0.69756051    -0.09570
C908        C  0.31927667  0.97950649  0.70486872     0.06630
C909        C  0.29368373  0.96033895  0.74249888    -0.03340
C910        C  0.28286050  0.98312536  0.77021907    -0.07790
C911        C  0.29650328  0.02507534  0.76118921     0.05740
C912        C  0.32418295  0.04478951  0.72506345    -0.02810
Br913      Br  0.34912434  0.10300244  0.71245052    -0.02510
H914        H  0.35381657  0.03723484  0.66822859     0.09650
H915        H  0.26418832  0.96811146  0.79954194     0.07670
Br916      Br  0.26971379  0.90243462  0.75573782    -0.02930
C917        C  0.40808860  0.84191080  0.09298831    -0.09570
C918        C  0.39731313  0.86037203  0.12625818     0.06630
C919        C  0.42815969  0.88024426  0.15939583    -0.03340
C920        C  0.46991403  0.88415660  0.15684087    -0.07790
C921        C  0.48162931  0.86871243  0.12128914     0.05740
C922        C  0.44941142  0.84573961  0.09031424    -0.02810
Br923      Br  0.45966467  0.81880416  0.04335338    -0.02510
H924        H  0.38473005  0.82606049  0.06738526     0.09650
H925        H  0.49380527  0.90076425  0.18171392     0.07670
Br926      Br  0.41564842  0.90487990  0.20674500    -0.02930
C927        C  0.25925791  0.69862590  0.01333522    -0.09570
C928        C  0.21990991  0.69705429  0.02349632     0.06630
C929        C  0.18432949  0.65881351  0.03661266    -0.03340
C930        C  0.18981460  0.62428587  0.04369196    -0.07790
C931        C  0.23019418  0.62655921  0.03723932     0.05740
C932        C  0.26455763  0.66376887  0.01951591    -0.02810
Br933      Br  0.31861311  0.66914766  0.00063398    -0.02510
H934        H  0.28656478  0.72744378  0.00190061     0.09650
H935        H  0.16238922  0.59568362  0.05540570     0.07670
Br936      Br  0.12708890  0.65137590  0.04441226    -0.02930
C937        C  0.44475067  0.05163801  0.93849246    -0.09570
C938        C  0.40483184  0.01574161  0.93108463     0.06630
C939        C  0.39280279  0.00491336  0.88732649    -0.03340
C940        C  0.41748812  0.03166920  0.85265922    -0.07790
C941        C  0.45374217  0.07095281  0.85988032     0.05740
C942        C  0.46957304  0.07849767  0.90331886    -0.02810
Br943      Br  0.52661952  0.12156344  0.91565923    -0.02510
H944        H  0.45633275  0.05926445  0.97172683     0.09650
H945        H  0.40510946  0.02365968  0.81967996     0.07670
Br946      Br  0.34041338  0.95557360  0.87298542    -0.02930
C947        C  0.28677167  0.06242767  0.19631231    -0.09570
C948        C  0.26060468  0.08020498  0.20620393     0.06630
C949        C  0.23276422  0.08120481  0.17280078    -0.03340
C950        C  0.23081567  0.06377925  0.13203971    -0.07790
C951        C  0.25620425  0.04520599  0.12326429     0.05740
C952        C  0.28457094  0.04505505  0.15599797    -0.02810
Br953      Br  0.31685738  0.01638339  0.14953809    -0.02510
H954        H  0.30867985  0.06070833  0.22050772     0.09650
H955        H  0.20698040  0.06208247  0.10813133     0.07670
Br956      Br  0.19310690  0.10143053  0.18181882    -0.02930
C957        C  0.16362896  0.82396519  0.83684285    -0.09570
C958        C  0.20185869  0.82518740  0.85243548     0.06630
C959        C  0.22042164  0.80579076  0.82888313    -0.03340
C960        C  0.20319685  0.78967446  0.78855063    -0.07790
C961        C  0.16982324  0.79510827  0.76947042     0.05740
C962        C  0.14699660  0.80838803  0.79578221    -0.02810
Br963      Br  0.09299598  0.80515790  0.77832008    -0.02510
H964        H  0.14734642  0.83618863  0.85606432     0.09650
H965        H  0.21993510  0.77761635  0.76982335     0.07670
Br966      Br  0.27375531  0.80633370  0.84427280    -0.02930
C967        C  0.26985651  0.89721998  0.32579993    -0.09570
C968        C  0.23119716  0.88208101  0.34940268     0.06630
C969        C  0.19297162  0.87595137  0.32705110    -0.03340
C970        C  0.19425812  0.88517585  0.28219211    -0.07790
C971        C  0.23256307  0.89914939  0.25848495     0.05740
C972        C  0.27069706  0.90552954  0.28064605    -0.02810
Br973      Br  0.32459581  0.92509389  0.25035397    -0.02510
H974        H  0.29938763  0.90236402  0.34243235     0.09650
H975        H  0.16439687  0.87839856  0.26518329     0.07670
Br976      Br  0.13648590  0.85012611  0.35382978    -0.02930
C977        C  0.59443040  0.47353180  0.83654669    -0.09570
C978        C  0.62992209  0.48118056  0.81010033     0.06630
C979        C  0.62870670  0.44764051  0.78876034    -0.03340
C980        C  0.59300907  0.40766931  0.79482581    -0.07790
C981        C  0.55752574  0.40014422  0.82132746     0.05740
C982        C  0.55849261  0.43380480  0.84195037    -0.02810
Br983      Br  0.51321782  0.42684619  0.88067664    -0.02510
H984        H  0.59481231  0.49865590  0.85365779     0.09650
H985        H  0.59306434  0.38225269  0.77876024     0.07670
Br986      Br  0.67612457  0.45389839  0.75369327    -0.02930
C987        C  0.80474569  0.41903058  0.83821820    -0.09570
C988        C  0.83446953  0.41021079  0.81797435     0.06630
C989        C  0.87826011  0.44202940  0.81291299    -0.03340
C990        C  0.89091236  0.48107507  0.82755817    -0.07790
C991        C  0.86096523  0.49037032  0.84538623     0.05740
C992        C  0.81762257  0.45909524  0.85147312    -0.02810
Br993      Br  0.77424528  0.47061343  0.87318409    -0.02510
H994        H  0.77127319  0.39520283  0.84250188     0.09650
H995        H  0.92387236  0.50554244  0.82143021     0.07670
Br996      Br  0.92266691  0.43786341  0.78156071    -0.02930
C997        C  0.85712705  0.79753274  0.97012514    -0.09570
C998        C  0.84014026  0.75491982  0.97751824     0.06630
C999        C  0.80678448  0.73419487  0.00868401    -0.03340
C1000       C  0.78878076  0.75527210  0.02914736    -0.07790
C1001       C  0.80290020  0.79700557  0.01870600     0.05740
C1002       C  0.83900012  0.81873031  0.99065957    -0.02810
Br1003     Br  0.86470610  0.87707276  0.97914611    -0.02510
H1004       H  0.88228418  0.81375460  0.94580563     0.09650
H1005       H  0.76155459  0.73812037  0.05106171     0.07670
Br1006     Br  0.78042819  0.67560433  0.01971861    -0.02930
C1007       C  0.79427927  0.80105752  0.76357046    -0.09570
C1008       C  0.76678779  0.76092694  0.74950086     0.06630
C1009       C  0.74699841  0.75580013  0.70767695    -0.03340
C1010       C  0.75532976  0.78995449  0.68083922    -0.07790
C1011       C  0.78252903  0.83001777  0.69461623     0.05740
C1012       C  0.80155967  0.83554930  0.73670501    -0.02810
Br1013     Br  0.83790993  0.88952883  0.75848857    -0.02510
H1014       H  0.81040422  0.80556589  0.79499673     0.09650
H1015       H  0.73877768  0.78503611  0.64958070     0.07670
Br1016     Br  0.70569579  0.70281393  0.68577016    -0.02930
C1017       C  0.96271150  0.79586928  0.67874880    -0.09570
C1018       C  0.92798514  0.76313560  0.65750103     0.06630
C1019       C  0.93479011  0.75534080  0.61449312    -0.03340
C1020       C  0.97634028  0.77679536  0.59556272    -0.07790
C1021       C  0.01232433  0.80615085  0.61892149     0.05740
C1022       C  0.00439350  0.81725503  0.66019127    -0.02810
Br1023     Br  0.04881466  0.85945154  0.69472467    -0.02510
H1024       H  0.95848522  0.80207974  0.71211677     0.09650
H1025       H  0.98084450  0.76814084  0.56353576     0.07670
Br1026     Br  0.89007946  0.71159527  0.58249392    -0.02930
C1027       C  0.04765040  0.76358986  0.89725095    -0.09570
C1028       C  0.02118257  0.77148089  0.86785512     0.06630
C1029       C  0.02403120  0.81066885  0.86789023    -0.03340
C1030       C  0.05203744  0.84053332  0.89734519    -0.07790
C1031       C  0.07673462  0.83171951  0.92819092     0.05740
C1032       C  0.07533244  0.79318187  0.92688901    -0.02810
Br1033     Br  0.11053310  0.77934836  0.96504226    -0.02510
H1034       H  0.04509489  0.73331470  0.89874283     0.09650
H1035       H  0.05352025  0.87033403  0.89703572     0.07670
Br1036     Br  0.98742685  0.82330037  0.83075634    -0.02930
C1037       C  0.55834952  0.40813584  0.28042936    -0.09570
C1038       C  0.57372025  0.38083815  0.29399661     0.06630
C1039       C  0.61869203  0.39488844  0.29249727    -0.03340
C1040       C  0.64715304  0.43674530  0.28281644    -0.07790
C1041       C  0.63112182  0.46438334  0.27567690     0.05740
C1042       C  0.58662604  0.44984757  0.27316348    -0.02810
Br1043     Br  0.56357474  0.48721134  0.26844681    -0.02510
H1044       H  0.52399457  0.39809393  0.28012244     0.09650
H1045       H  0.68184534  0.44844237  0.28539871     0.07670
Br1046     Br  0.64376665  0.36081296  0.30874223    -0.02930
C1047       C  0.84993707  0.39687572  0.34948793    -0.09570
C1048       C  0.81856371  0.37233542  0.31882577     0.06630
C1049       C  0.78419918  0.37991337  0.30792232    -0.03340
C1050       C  0.78348286  0.41361739  0.32515664    -0.07790
C1051       C  0.81664563  0.43985712  0.35312169     0.05740
C1052       C  0.84911617  0.43059480  0.36667447    -0.02810
Br1053     Br  0.89540267  0.46576907  0.40465537    -0.02510
H1054       H  0.87546999  0.39025235  0.35974991     0.09650
H1055       H  0.75909701  0.42147348  0.31370311     0.07670
Br1056     Br  0.73990569  0.34761982  0.26657390    -0.02930
C1057       C  0.79353162  0.71979555  0.52712432    -0.09570
C1058       C  0.76901762  0.68488642  0.50243808     0.06630
C1059       C  0.72353255  0.67071645  0.49912016    -0.03340
C1060       C  0.70554663  0.69479325  0.51313951    -0.07790
C1061       C  0.73111675  0.73234170  0.53341910     0.05740
C1062       C  0.77472673  0.74223720  0.54426169    -0.02810
Br1063     Br  0.81045476  0.78379527  0.58460075    -0.02510
H1064       H  0.82791182  0.73092403  0.53144100     0.09650
H1065       H  0.67162192  0.68469165  0.50658053     0.07670
Br1066     Br  0.68400508  0.61918782  0.47337386    -0.02930
C1067       C  0.70879576  0.73806924  0.26936340    -0.09570
C1068       C  0.69877052  0.69750157  0.27586188     0.06630
C1069       C  0.66134665  0.66557086  0.25656827    -0.03340
C1070       C  0.63707936  0.67550745  0.22675713    -0.07790
C1071       C  0.65091643  0.71681826  0.21528288     0.05740
C1072       C  0.68635106  0.74828128  0.23844343    -0.02810
Br1073     Br  0.71428495  0.80602088  0.22415207    -0.02510
H1074       H  0.73781652  0.76230630  0.28419950     0.09650
H1075       H  0.61063801  0.65119335  0.20906882     0.07670
Br1076     Br  0.64558353  0.60861528  0.26536117    -0.02930
C1077       C  0.99400980  0.72161172  0.20435210    -0.09570
C1078       C  0.95587612  0.71783521  0.18363819     0.06630
C1079       C  0.95876558  0.72851472  0.13860735    -0.03340
C1080       C  0.99838771  0.74212541  0.11603389    -0.07790
C1081       C  0.03600085  0.74498321  0.13692668     0.05740
C1082       C  0.03301764  0.73426967  0.18178853    -0.02810
Br1083     Br  0.08162085  0.73828156  0.21490295    -0.02510
H1084       H  0.99352191  0.71396342  0.23896850     0.09650
H1085       H  0.00002108  0.75119496  0.08171614     0.07670
Br1086     Br  0.91012271  0.72477804  0.10610746    -0.02930
C1087       C  0.06992734  0.70426963  0.41641675    -0.09570
C1088       C  0.06389018  0.69094150  0.46050213     0.06630
C1089       C  0.02339401  0.66093872  0.47598622    -0.03340
C1090       C  0.98804571  0.64794201  0.44825191    -0.07790
C1091       C  0.99281334  0.66642638  0.40614427     0.05740
C1092       C  0.03427788  0.69313776  0.38924107    -0.02810
Br1093     Br  0.04382129  0.72167671  0.33345981    -0.02510
H1094       H  0.10150506  0.72818578  0.40507704     0.09650
H1095       H  0.95628217  0.62617054  0.46115459     0.07670
Br1096     Br  0.01399114  0.64260149  0.53636777    -0.02930
C1097       C  0.77643256  0.51638787  0.59986667    -0.09570
C1098       C  0.78831765  0.55422203  0.61897359     0.06630
C1099       C  0.77769941  0.58178038  0.59496390    -0.03340
C1100       C  0.75824286  0.57236600  0.55294899    -0.07790
C1101       C  0.74722170  0.53484873  0.53357581     0.05740
C1102       C  0.75616261  0.50660067  0.55828131    -0.02810
Br1103     Br  0.73939556  0.45281840  0.53739339    -0.02510
H1104       H  0.78122563  0.49339932  0.61821364     0.09650
H1105       H  0.75231916  0.59488090  0.53511960     0.07670
Br1106     Br  0.78720012  0.63244632  0.61856462    -0.02930
C1107       C  0.75162361  0.51871739  0.09707998    -0.09570
C1108       C  0.79147835  0.54262268  0.11906156     0.06630
C1109       C  0.82577661  0.57407026  0.09431921    -0.03340
C1110       C  0.81985765  0.58095784  0.04957864    -0.07790
C1111       C  0.77994648  0.55718842  0.02759359     0.05740
C1112       C  0.74584090  0.52547501  0.05213018    -0.02810
Br1113     Br  0.69114142  0.49012555  0.02532292    -0.02510
H1114       H  0.72415568  0.49528390  0.11548280     0.09650
H1115       H  0.84694152  0.60559830  0.03185292     0.07670
Br1116     Br  0.88052037  0.61056629  0.12055693    -0.02930
loop_ 
_geom_bond_atom_site_label_1 
_geom_bond_atom_site_label_2 
_geom_bond_distance 
_geom_bond_site_symmetry_2 
_ccdc_geom_bond_type 
C1           N19   1.340       .  A
C1           C38   1.455       .  S
C1         C1091   1.449       .  S
N2           N19   1.310       .  A
N2           N24   1.320       .  A
N2          Co39   2.029       .  S
C3           N28   1.329       .  A
C3           C41   1.437       .  S
C3           H48   1.082       .  S
H4           C45   1.081       .  S
C5           N29   1.331       .  A
C5            C9   1.439       .  S
C5           H34   1.082       .  S
Co6          N24   2.074       .  S
Co6          N14   1.995       .  S
Co6          N46   2.024       .  S
Co6          N22   2.162       .  S
Co6         Cl50   2.438       .  S
N7           C45   1.374       .  A
N7           N14   1.317       .  A
N7           Co8   2.204       .  S
Co8          N11   2.052       .  S
Co8          N28   2.015       .  S
Co8          N15   2.116       .  S
Co8         Cl50   2.426       .  S
C9           N47   1.347       .  A
C9         C1068   1.445       .  S
N10          N17   1.314       .  A
N10          N40   1.309       .  A
N10         Co43   1.979       .  S
N11          N29   1.319       .  A
N11          N47   1.318       .  A
N12          C41   1.378       .  A
N12          N22   1.342       .  A
H13          C38   1.081       .  S
N14          N35   1.307       .  A
N15          N33   1.330       .  A
N15          N20   1.324       .  A
C16          N20   1.344       .  A
C16          C44   1.447       .  S
C16        C1041   1.448       .  S
N17          C32   1.374       .  A
N17         Co39   2.220       .  S
C18          N46   1.323       .  A
C18          C21   1.437       .  S
C18          H52   1.082       .  S
C21          N42   1.350       .  A
C21        C1051   1.446       .  S
N22          N28   1.308       .  A
N23          C49   1.331       .  A
N23          N25   1.307       .  A
N23         Co39   2.004       .  S
N24          C38   1.335       .  A
N25          N53   1.343       .  A
N25         Co43   2.174       .  S
H26          C49   1.082       .  S
H27          C44   1.082       .  S
N29         Co43   2.047       .  S
N30          N42   1.328       .  A
N30          N46   1.326       .  A
N30         Co39   2.123       .  S
C31          N35   1.327       .  A
C31          C45   1.516       .  S
C31        C1078   1.516       .  S
C32          C51   1.512       .  S
C32          H36   1.081       .  S
N33          C44   1.330       .  A
N33         Co43   2.053       .  S
C37          N53   1.377       .  A
C37          C49   1.441       .  S
C37        C1101   1.519       .  S
Co39        Cl50   2.420       .  S
N40          C51   1.324       .  A
C41        C1108   1.507       .  S
Co43        Cl50   2.431       .  S
C51        C1058   1.510       .  S
C54          N72   1.325       .  A
C54          C91   1.489       .  S
C54        C1008   1.477       .  S
N55          N72   1.307       .  A
N55          N77   1.315       .  A
N55         Co92   1.989       .  S
C56          N81   1.330       .  A
C56          C94   1.443       .  S
C56         H101   1.082       .  S
H57          C98   1.081       .  S
C58          N82   1.364       .  A
C58          C62   1.489       .  S
C58          H87   1.081       .  S
Co59         N77   2.149       .  S
Co59         N67   2.029       .  S
Co59         N99   2.082       .  S
Co59         N75   2.179       .  S
Co59       Cl103   2.477       .  S
N60          C98   1.355       .  A
N60          N67   1.320       .  A
N60         Co61   2.143       .  S
Co61         N64   2.020       .  S
Co61         N81   2.028       .  S
Co61         N68   2.103       .  S
Co61       Cl103   2.414       .  S
C62         N100   1.332       .  A
C62        C1028   1.488   1_655  S
N63          N70   1.321       .  A
N63          N93   1.313       .  A
N63         Co96   2.001       .  S
N64          N82   1.319       .  A
N64         N100   1.316       .  A
N65          C94   1.378       .  A
N65          N75   1.343       .  A
H66          C91   1.081       .  S
N67          N88   1.314       .  A
N68          N86   1.325       .  A
N68          N73   1.327       .  A
C69          N73   1.349       .  A
C69          C97   1.445       .  S
C69         C991   1.456       .  S
N70          C85   1.364       .  A
N70         Co92   2.194       .  S
C71          N99   1.339       .  A
C71          C74   1.457       .  S
C71         H105   1.082       .  S
C74          N95   1.360       .  A
C74         C978   1.495       .  S
N75          N81   1.315       .  A
N76         C102   1.331       .  A
N76          N78   1.315       .  A
N76         Co92   2.017       .  S
N77          C91   1.363       .  A
N78         N106   1.345       .  A
N78         Co96   2.199       .  S
H79         C102   1.082       .  S
H80          C97   1.082       .  S
N82         Co96   2.165       .  S
N83          N95   1.333       .  A
N83          N99   1.324       .  A
N83         Co92   2.136       .  S
C84          N88   1.337       .  A
C84          C98   1.480       .  S
C84         C998   1.472       .  S
C85         C104   1.490       .  S
C85          H89   1.081       .  S
N86          C97   1.327       .  A
N86         Co96   2.054       .  S
C90         N106   1.381       .  A
C90         C102   1.438       .  S
C90        C1098   1.518       .  S
Co92       Cl103   2.408       .  S
N93         C104   1.332       .  A
C94        C1111   1.514   1_556  S
Co96       Cl103   2.486       .  S
C104       C1018   1.484       .  S
C107        N125   1.361   1_556  A
C107        C144   1.453       .  S
C107       C1031   1.493       .  S
N108        N125   1.332       .  A
N108        N130   1.316   1_554  A
N108       Co145   2.111       .  S
C109        N134   1.352   1_556  A
C109        C147   1.474       .  S
C109        H154   1.081       .  S
H110        C151   1.078       .  S
C111        N135   1.333       .  A
C111        C115   1.456       .  S
C111        H140   1.081       .  S
Co112       N130   2.087       .  S
Co112       N120   2.112       .  S
Co112       N152   2.139   1_556  S
Co112       N128   2.098       .  S
Co112      Cl156   2.478   1_556  S
N113        C151   1.327       .  A
N113        N120   1.318       .  A
N113       Co114   2.027   1_556  S
Co114       N117   2.127       .  S
Co114       N134   2.130       .  S
Co114       N121   2.043       .  S
Co114      Cl156   2.425       .  S
C115        N153   1.357       .  A
C115        C928   1.481       .  S
N116        N123   1.315       .  A
N116        N146   1.341       .  A
N116       Co149   2.176       .  S
N117        N135   1.319       .  A
N117        N153   1.329       .  A
N118        C147   1.356       .  A
N118        N128   1.330       .  A
H119        C144   1.080       .  S
N120        N141   1.325       .  A
N121        N139   1.323       .  A
N121        N126   1.316       .  A
C122        N126   1.340       .  A
C122        C150   1.486       .  S
C122        C918   1.491       .  S
N123        C138   1.330       .  A
N123       Co145   2.024       .  S
C124        N152   1.358   1_545  A
C124        C127   1.487       .  S
C124        H158   1.081       .  S
C127        N148   1.335   1_545  A
C127        C951   1.480       .  S
N128        N134   1.322   1_556  A
N129        C155   1.350       .  A
N129        N131   1.322       .  A
N129       Co145   2.137       .  S
N130        C144   1.342       .  A
N131        N159   1.317       .  A
N131       Co149   2.043       .  S
H132        C155   1.081       .  S
H133        C150   1.082       .  S
N135       Co149   2.047       .  S
N136        N148   1.316       .  A
N136        N152   1.320       .  A
N136       Co145   2.046       .  S
C137        N141   1.353       .  A
C137        C151   1.443       .  S
C137        C958   1.465       .  S
C138        C157   1.439       .  S
C138        H142   1.082       .  S
N139        C150   1.360       .  A
N139       Co149   2.163       .  S
C143        N159   1.340       .  A
C143        C155   1.475       .  S
C143        C971   1.471       .  S
Co145      Cl156   2.429       .  S
N146        C157   1.377       .  A
C147        C938   1.506   1_565  S
Co149      Cl156   2.477       .  S
C157       C1081   1.507       .  S
C160        N178   1.349       .  A
C160        C197   1.445       .  S
C160       C1088   1.431       .  S
N161        N178   1.314       .  A
N161        N183   1.318       .  A
N161       Co198   2.064       .  S
C162        N187   1.345       .  A
C162        C200   1.471       .  S
C162        H207   1.082       .  S
H163        C204   1.082       .  S
C164        N188   1.335       .  A
C164        C168   1.466       .  S
C164        H193   1.078       .  S
Co165       N183   2.049       .  S
Co165       N173   2.077       .  S
Co165       N205   2.095       .  S
Co165       N181   2.090       .  S
Co165      Cl209   2.436       .  S
N166        C204   1.355       .  A
N166        N173   1.318       .  A
N166       Co167   2.120       .  S
Co167       N170   2.083       .  S
Co167       N187   2.122       .  S
Co167       N174   2.137       .  S
Co167      Cl209   2.475       .  S
C168        N206   1.355       .  A
C168        C961   1.477       .  S
N169        N176   1.311       .  A
N169        N199   1.327       .  A
N169       Co202   2.082       .  S
N170        N188   1.319       .  A
N170        N206   1.318       .  A
N171        C200   1.349       .  A
N171        N181   1.326       .  A
H172        C197   1.081       .  S
N173        N194   1.323       .  A
N174        N192   1.316       .  A
N174        N179   1.335       .  A
C175        N179   1.369       .  A
C175        C203   1.434       .  S
C175        C908   1.478       .  S
N176        C191   1.346       .  A
N176       Co198   2.084       .  S
C177        N205   1.350       .  A
C177        C180   1.471       .  S
C177        H211   1.081       .  S
C180        N201   1.337       .  A
C180        C968   1.477       .  S
N181        N187   1.327       .  A
N182        C208   1.337       .  A
N182        N184   1.314       .  A
N182       Co198   2.080       .  S
N183        C197   1.331       .  A
N184        N212   1.330       .  A
N184       Co202   2.094       .  S
H185        C208   1.079       .  S
H186        C203   1.083       .  S
N188       Co202   2.080       .  S
N189        N201   1.316       .  A
N189        N205   1.319       .  A
N189       Co198   2.061       .  S
C190        N194   1.345       .  A
C190        C204   1.478       .  S
C190        C888   1.495       .  S
C191        C210   1.472       .  S
C191        H195   1.081       .  S
N192        C203   1.321       .  A
N192       Co202   2.025       .  S
C196        N212   1.354       .  A
C196        C208   1.461       .  S
C196        C898   1.489   1_565  S
Co198      Cl209   2.453       .  S
N199        C210   1.353       .  A
C200        C878   1.489       .  S
Co202      Cl209   2.415       .  S
C210       C1021   1.503       .  S
C213        N231   1.352       .  A
C213        C250   1.466       .  S
C213        C931   1.487       .  S
N214        N231   1.324       .  A
N214        N236   1.320       .  A
N214       Co251   2.074       .  S
C215        N240   1.335       .  A
C215        C253   1.448       .  S
C215        H260   1.081       .  S
H216        C257   1.081       .  S
C217        N241   1.335       .  A
C217        C221   1.458       .  S
C217        H246   1.082       .  S
Co218       N236   2.104       .  S
Co218       N226   2.065       .  S
Co218       N258   2.064       .  S
Co218       N234   2.126       .  S
Co218      Cl262   2.443       .  S
N219        C257   1.343   1_554  A
N219        N226   1.315       .  A
N219       Co220   2.066       .  S
Co220       N223   2.089   1_554  S
Co220       N240   2.066       .  S
Co220       N227   2.058       .  S
Co220      Cl262   2.442       .  S
C221        N259   1.353       .  A
C221        C838   1.477       .  S
N222        N229   1.315       .  A
N222        N252   1.314   1_554  A
N222       Co255   2.053       .  S
N223        N241   1.321       .  A
N223        N259   1.326       .  A
N224        C253   1.362       .  A
N224        N234   1.333       .  A
H225        C250   1.079       .  S
N226        N247   1.316       .  A
N227        N245   1.318       .  A
N227        N232   1.315       .  A
C228        N232   1.340       .  A
C228        C256   1.472       .  S
C228        C831   1.472   1_554  S
N229        C244   1.353       .  A
N229       Co251   2.105       .  S
C230        N258   1.340       .  A
C230        C233   1.464       .  S
C230        H264   1.080       .  S
C233        N254   1.345       .  A
C233        C848   1.475       .  S
N234        N240   1.319       .  A
N235        C261   1.320       .  A
N235        N237   1.319       .  A
N235       Co251   2.038       .  S
N236        C250   1.341       .  A
N237        N265   1.332       .  A
N237       Co255   2.118       .  S
H238        C261   1.082       .  S
H239        C256   1.081       .  S
N241       Co255   2.082   1_556  S
N242        N254   1.322       .  A
N242        N258   1.315       .  A
N242       Co251   2.078       .  S
C243        N247   1.344   1_556  A
C243        C257   1.463       .  S
C243        C811   1.457       .  S
C244        C263   1.484   1_554  S
C244        H248   1.078       .  S
N245        C256   1.344       .  A
N245       Co255   2.085       .  S
C249        N265   1.364       .  A
C249        C261   1.436       .  S
C249        C868   1.462       .  S
Co251      Cl262   2.438       .  S
N252        C263   1.344       .  A
C253        C818   1.482       .  S
Co255      Cl262   2.445       .  S
C263        C861   1.498       .  S
C266        N284   1.358       .  A
C266        C303   1.430       .  S
C266        C798   1.453       .  S
N267        N284   1.326       .  A
N267        N289   1.313       .  A
N267       Co304   2.088       .  S
C268        N293   1.351       .  A
C268        C306   1.477       .  S
C268        H313   1.081       .  S
H269        C310   1.081       .  S
C270        N294   1.331       .  A
C270        C274   1.453       .  S
C270        H299   1.082       .  S
Co271       N289   2.011       .  S
Co271       N279   2.107       .  S
Co271       N311   2.133       .  S
Co271       N287   2.041       .  S
Co271      Cl315   2.392       .  S
N272        C310   1.342       .  A
N272        N279   1.320       .  A
N272       Co273   2.060       .  S
Co273       N276   2.112       .  S
Co273       N293   2.126       .  S
Co273       N280   2.060       .  S
Co273      Cl315   2.490       .  S
C274        N312   1.362       .  A
C274        C758   1.489       .  S
N275        N282   1.324       .  A
N275        N305   1.328       .  A
N275       Co308   2.107       .  S
N276        N294   1.315       .  A
N276        N312   1.334       .  A
N277        C306   1.342       .  A
N277        N287   1.321       .  A
H278        C303   1.082       .  S
N279        N300   1.320       .  A
N280        N298   1.326       .  A
N280        N285   1.318       .  A
C281        N285   1.341       .  A
C281        C309   1.458       .  S
C281        C778   1.470       .  S
N282        C297   1.348       .  A
N282       Co304   2.122       .  S
C283        N311   1.353       .  A
C283        C286   1.474       .  S
C283        H317   1.081       .  S
C286        N307   1.346       .  A
C286        C791   1.485       .  S
N287        N293   1.317       .  A
N288        C314   1.348       .  A
N288        N290   1.314       .  A
N288       Co304   2.081       .  S
N289        C303   1.320       .  A
N290        N318   1.316       .  A
N290       Co308   2.056       .  S
H291        C314   1.081       .  S
H292        C309   1.077       .  S
N294       Co308   2.055       .  S
N295        N307   1.323       .  A
N295        N311   1.323       .  A
N295       Co304   2.079       .  S
C296        N300   1.348       .  A
C296        C310   1.464       .  S
C296        C841   1.479       .  S
C297        C316   1.474       .  S
C297        H301   1.081       .  S
N298        C309   1.347       .  A
N298       Co308   2.123       .  S
C302        N318   1.341       .  A
C302        C314   1.465       .  S
C302        C851   1.468       .  S
Co304      Cl315   2.483       .  S
N305        C316   1.354       .  A
C306        C768   1.492       .  S
Co308      Cl315   2.411       .  S
C316        C891   1.502       .  S
C319        N337   1.338       .  A
C319        C356   1.477       .  S
C319       C1038   1.477       .  S
N320        N337   1.309       .  A
N320        N342   1.318       .  A
N320       Co357   2.040       .  S
C321        N346   1.335       .  A
C321        C359   1.455       .  S
C321        H366   1.081       .  S
H322        C363   1.081       .  S
C323        N347   1.338       .  A
C323        C327   1.453       .  S
C323        H352   1.081       .  S
Co324       N342   2.105       .  S
Co324       N332   2.064       .  S
Co324       N364   2.059       .  S
Co324       N340   2.105       .  S
Co324      Cl368   2.462       .  S
N325        C363   1.346       .  A
N325        N332   1.314       .  A
N325       Co326   2.081       .  S
Co326       N329   2.098       .  S
Co326       N346   2.078       .  S
Co326       N333   2.080       .  S
Co326      Cl368   2.411       .  S
C327        N365   1.351       .  A
C327        C751   1.468       .  S
N328        N335   1.315       .  A
N328        N358   1.321       .  A
N328       Co361   2.028       .  S
N329        N347   1.323       .  A
N329        N365   1.323       .  A
N330        C359   1.356       .  A
N330        N340   1.331       .  A
H331        C356   1.080       .  S
N332        N353   1.321       .  A
N333        N351   1.324       .  A
N333        N338   1.317       .  A
C334        N338   1.342       .  A
C334        C362   1.478       .  S
C334        C948   1.511       .  S
N335        C350   1.357       .  A
N335       Co357   2.158       .  S
C336        N364   1.338       .  A
C336        C339   1.457       .  S
C336        H370   1.081       .  S
C339        N360   1.360       .  A
C339        C741   1.499       .  S
N340        N346   1.320       .  A
N341        C367   1.330       .  A
N341        N343   1.321       .  A
N341       Co357   2.069       .  S
N342        C356   1.351       .  A
N343        N371   1.334       .  A
N343       Co361   2.146       .  S
H344        C367   1.082       .  S
H345        C362   1.079       .  S
N347       Co361   2.070       .  S
N348        N360   1.330       .  A
N348        N364   1.313       .  A
N348       Co357   2.108       .  S
C349        N353   1.347       .  A
C349        C363   1.464       .  S
C349        C728   1.472       .  S
C350        C369   1.473       .  S
C350        H354   1.080       .  S
N351        C362   1.352       .  A
N351       Co361   2.097       .  S
C355        N371   1.367       .  A
C355        C367   1.447       .  S
C355        C781   1.501       .  S
Co357      Cl368   2.404       .  S
N358        C369   1.342       .  A
C359        C901   1.481       .  S
Co361      Cl368   2.487       .  S
C369        C821   1.489       .  S
C372        N390   1.358       .  A
C372        C409   1.434       .  S
C372        C828   1.457       .  S
N373        N390   1.331       .  A
N373        N395   1.323       .  A
N373       Co410   2.113       .  S
C374        N399   1.324       .  A
C374        C412   1.434       .  S
C374        H419   1.078       .  S
H375        C416   1.081       .  S
C376        N400   1.327       .  A
C376        C380   1.441       .  S
C376        H405   1.082       .  S
Co377       N395   2.053       .  S
Co377       N385   2.158       .  S
Co377       N417   2.120       .  S
Co377       N393   2.125       .  S
Co377      Cl421   2.440       .  S
N378        C416   1.323       .  A
N378        N385   1.317       .  A
N378       Co379   2.008       .  S
Co379       N382   2.153       .  S
Co379       N399   2.027       .  S
Co379       N386   2.054       .  S
Co379      Cl421   2.416       .  S
C380        N418   1.370       .  A
C380        C721   1.485       .  S
N381        N388   1.314       .  A
N381        N411   1.327       .  A
N381       Co414   2.097       .  S
N382        N400   1.304       .  A
N382        N418   1.326       .  A
N383        C412   1.370       .  A
N383        N393   1.334       .  A
H384        C409   1.081       .  S
N385        N406   1.333       .  A
N386        N404   1.303       .  A
N386        N391   1.312       .  A
C387        N391   1.330       .  A
C387        C415   1.502       .  S
C387        C941   1.522       .  S
N388        C403   1.348       .  A
N388       Co410   2.073       .  S
C389        N417   1.358       .  A
C389        C392   1.484       .  S
C389        H423   1.081       .  S
C392        N413   1.333       .  A
C392        C771   1.477       .  S
N393        N399   1.310       .  A
N394        C420   1.327       .  A
N394        N396   1.326       .  A
N394       Co410   2.086       .  S
N395        C409   1.327       .  A
N396        N424   1.337       .  A
N396       Co414   2.135       .  S
H397        C420   1.080       .  S
H398        C415   1.075       .  S
N400       Co414   2.022       .  S
N401        N413   1.313       .  A
N401        N417   1.319       .  A
N401       Co410   2.051       .  S
C402        N406   1.363       .  A
C402        C416   1.448       .  S
C402        C748   1.485   1_556  S
C403        C422   1.470       .  S
C403        H407   1.081       .  S
N404        C415   1.374       .  A
N404       Co414   2.200       .  S
C408        N424   1.368       .  A
C408        C420   1.446       .  S
C408        C738   1.494       .  S
Co410      Cl421   2.416       .  S
N411        C422   1.350       .  A
C412        C911   1.478       .  S
Co414      Cl421   2.430       .  S
C422        C981   1.495       .  S
C425        N443   1.335       .  A
C425        C462   1.470       .  S
C425       C1071   1.465       .  S
N426        N443   1.311       .  A
N426        N448   1.313       .  A
N426       Co463   2.042       .  S
C427        N452   1.345       .  A
C427        C465   1.471       .  S
C427        H472   1.082       .  S
H428        C469   1.080   1_556  S
C429        N453   1.343       .  A
C429        C433   1.467       .  S
C429        H458   1.081       .  S
Co430       N448   2.085       .  S
Co430       N438   2.081       .  S
Co430       N470   2.041       .  S
Co430       N446   2.094       .  S
Co430      Cl474   2.469       .  S
N431        C469   1.337       .  A
N431        N438   1.319       .  A
N431       Co432   2.082       .  S
Co432       N435   2.022   1_554  S
Co432       N452   2.090       .  S
Co432       N439   2.095       .  S
Co432      Cl474   2.427       .  S
C433        N471   1.327       .  A
C433        C698   1.447       .  S
N434        N441   1.315       .  A
N434        N464   1.328       .  A
N434       Co467   2.096       .  S
N435        N453   1.317       .  A
N435        N471   1.306       .  A
N436        C465   1.351       .  A
N436        N446   1.327       .  A
H437        C462   1.081       .  S
N438        N459   1.324       .  A
N439        N457   1.320       .  A
N439        N444   1.327   1_554  A
C440        N444   1.358       .  A
C440        C468   1.443   1_556  S
C440        C688   1.464   1_565  S
N441        C456   1.339       .  A
N441       Co463   2.068       .  S
C442        N470   1.335       .  A
C442        C445   1.457       .  S
C442        H476   1.081       .  S
C445        N466   1.348       .  A
C445        C708   1.456       .  S
N446        N452   1.319       .  A
N447        C473   1.325       .  A
N447        N449   1.309       .  A
N447       Co463   2.032       .  S
N448        C462   1.345       .  A
N449        N477   1.327       .  A
N449       Co467   2.088       .  S
H450        C473   1.082       .  S
H451        C468   1.082       .  S
N453       Co467   2.079   1_556  S
N454        N466   1.323       .  A
N454        N470   1.318       .  A
N454       Co463   2.113       .  S
C455        N459   1.353       .  A
C455        C469   1.451       .  S
C455        C808   1.471       .  S
C456        C475   1.459       .  S
C456        H460   1.081       .  S
N457        C468   1.322       .  A
N457       Co467   2.050       .  S
C461        N477   1.361       .  A
C461        C473   1.448       .  S
C461        C681   1.459       .  S
Co463      Cl474   2.396       .  S
N464        C475   1.355       .  A
C465        C921   1.491       .  S
Co467      Cl474   2.443       .  S
C475       C1001   1.485       .  S
C478        N496   1.360       .  A
C478        C515   1.453       .  S
C478       C1011   1.479       .  S
N479        N496   1.327       .  A
N479        N501   1.313       .  A
N479       Co516   2.108       .  S
C480        N505   1.359       .  A
C480        C518   1.483       .  S
C480        H525   1.081       .  S
H481        C522   1.081       .  S
C482        N506   1.335       .  A
C482        C486   1.458       .  S
C482        H511   1.082       .  S
Co483       N501   2.053       .  S
Co483       N491   2.088       .  S
Co483       N523   2.083       .  S
Co483       N499   2.054       .  S
Co483      Cl527   2.456       .  S
N484        C522   1.328       .  A
N484        N491   1.317       .  A
N484       Co485   2.024       .  S
Co485       N488   2.131       .  S
Co485       N505   2.135       .  S
Co485       N492   2.025       .  S
Co485      Cl527   2.446       .  S
C486        N524   1.359       .  A
C486        C761   1.488       .  S
N487        N494   1.319       .  A
N487        N517   1.343       .  A
N487       Co520   2.181       .  S
N488        N506   1.318       .  A
N488        N524   1.331       .  A
N489        C518   1.339       .  A
N489        N499   1.319       .  A
H490        C515   1.080       .  S
N491        N512   1.319       .  A
N492        N510   1.322       .  A
N492        N497   1.314       .  A
C493        N497   1.336       .  A
C493        C521   1.488       .  S
C493        C881   1.486       .  S
N494        C509   1.333       .  A
N494       Co516   2.058       .  S
C495        N523   1.341       .  A
C495        C498   1.458   1_565  S
C495        H529   1.079   1_565  S
C498        N519   1.349   1_545  A
C498        C668   1.469       .  S
N499        N505   1.317       .  A
N500        C526   1.344       .  A
N500        N502   1.320       .  A
N500       Co516   2.088       .  S
N501        C515   1.337       .  A
N502        N530   1.316       .  A
N502       Co520   2.061       .  S
H503        C526   1.081       .  S
H504        C521   1.081       .  S
N506       Co520   2.054       .  S
N507        N519   1.323       .  A
N507        N523   1.317       .  A
N507       Co516   2.081       .  S
C508        N512   1.350       .  A
C508        C522   1.442       .  S
C508        C701   1.436       .  S
C509        C528   1.451       .  S
C509        H513   1.077       .  S
N510        C521   1.361       .  A
N510       Co520   2.174       .  S
C514        N530   1.344       .  A
C514        C526   1.464       .  S
C514        C711   1.463       .  S
Co516      Cl527   2.447       .  S
N517        C528   1.377       .  A
C518        C658   1.492   1_565  S
Co520      Cl527   2.447       .  S
C528       C1061   1.522       .  S
C531        N549   1.365       .  A
C531        C568   1.437       .  S
C531        C871   1.465       .  S
N532        N549   1.331       .  A
N532        N554   1.312       .  A
N532       Co569   2.110       .  S
C533        N558   1.337       .  A
C533        C571   1.461       .  S
C533        H578   1.080       .  S
H534        C575   1.081       .  S
C535        N559   1.334       .  A
C535        C539   1.454       .  S
C535        H564   1.082       .  S
Co536       N554   2.027       .  S
Co536       N544   2.090       .  S
Co536       N576   2.133       .  S
Co536       N552   2.049       .  S
Co536      Cl580   2.417       .  S
N537        C575   1.341       .  A
N537        N544   1.319       .  A
N537       Co538   2.073       .  S
Co538       N541   2.089       .  S
Co538       N558   2.082       .  S
Co538       N545   2.065       .  S
Co538      Cl580   2.459       .  S
C539        N577   1.356       .  A
C539        C731   1.472       .  S
N540        N547   1.321       .  A
N540        N570   1.316       .  A
N540       Co573   2.063       .  S
N541        N559   1.312       .  A
N541        N577   1.329       .  A
N542        C571   1.346       .  A
N542        N552   1.318       .  A
H543        C568   1.081       .  S
N544        N565   1.320       .  A
N545        N563   1.319       .  A
N545        N550   1.321       .  A
C546        N550   1.347       .  A
C546        C574   1.461       .  S
C546        C671   1.467       .  S
N547        C562   1.336       .  A
N547       Co569   2.077       .  S
C548        N576   1.354       .  A
C548        C551   1.478       .  S
C548        H582   1.081       .  S
C551        N572   1.342       .  A
C551        C788   1.482       .  S
N552        N558   1.318       .  A
N553        C579   1.346       .  A
N553        N555   1.318       .  A
N553       Co569   2.089       .  S
N554        C568   1.325       .  A
N555        N583   1.315       .  A
N555       Co573   2.047       .  S
H556        C579   1.081       .  S
H557        C574   1.080       .  S
N559       Co573   2.056       .  S
N560        N572   1.319       .  A
N560        N576   1.321       .  A
N560       Co569   2.060       .  S
C561        N565   1.346       .  A
C561        C575   1.465       .  S
C561        C648   1.479       .  S
C562        C581   1.463       .  S
C562        H566   1.082       .  S
N563        C574   1.342       .  A
N563       Co573   2.097       .  S
C567        N583   1.337       .  A
C567        C579   1.464       .  S
C567        C638   1.460       .  S
Co569      Cl580   2.463       .  S
N570        C581   1.343       .  A
C571        C678   1.482       .  S
Co573      Cl580   2.413       .  S
C581       C1048   1.459       .  S
C584        N602   1.333       .  A
C584        C621   1.477       .  S
C584        C988   1.475       .  S
N585        N602   1.309       .  A
N585        N607   1.313       .  A
N585       Co622   2.019       .  S
C586        N611   1.335       .  A
C586        C624   1.449       .  S
C586        H631   1.081       .  S
H587        C628   1.080       .  S
C588        N612   1.334       .  A
C588        C592   1.459       .  S
C588        H617   1.081       .  S
Co589       N607   2.110       .  S
Co589       N597   2.076       .  S
Co589       N629   2.085       .  S
Co589       N605   2.129       .  S
Co589      Cl633   2.462       .  S
N590        C628   1.342       .  A
N590        N597   1.314       .  A
N590       Co591   2.056       .  S
Co591       N594   2.090       .  S
Co591       N611   2.066       .  S
Co591       N598   2.061       .  S
Co591      Cl633   2.408       .  S
C592        N630   1.352       .  A
C592        C651   1.483   1_556  S
N593        N600   1.316       .  A
N593        N623   1.325       .  A
N593       Co626   2.063       .  S
N594        N612   1.317       .  A
N594        N630   1.324       .  A
N595        C624   1.364       .  A
N595        N605   1.336       .  A
H596        C621   1.081       .  S
N597        N618   1.314       .  A
N598        N616   1.320       .  A
N598        N603   1.313       .  A
C599        N603   1.339       .  A
C599        C627   1.479       .  S
C599        C691   1.468       .  S
N600        C615   1.347       .  A
N600       Co622   2.117       .  S
C601        N629   1.347       .  A
C601        C604   1.466       .  S
C601        H635   1.081       .  S
C604        N625   1.338       .  A
C604        C641   1.465       .  S
N605        N611   1.317       .  A
N606        C632   1.320       .  A
N606        N608   1.312       .  A
N606       Co622   2.032       .  S
N607        C621   1.352       .  A
N608        N636   1.329       .  A
N608       Co626   2.101       .  S
H609        C632   1.082       .  S
H610        C627   1.081       .  S
N612       Co626   2.057       .  S
N613        N625   1.318       .  A
N613        N629   1.316       .  A
N613       Co622   2.061       .  S
C614        N618   1.352       .  A
C614        C628   1.461       .  S
C614        C718   1.468       .  S
C615        C634   1.462       .  S
C615        H619   1.079       .  S
N616        C627   1.343       .  A
N616       Co626   2.100       .  S
C620        N636   1.363       .  A
C620        C632   1.434       .  S
C620        C801   1.467       .  S
Co622      Cl633   2.374       .  S
N623        C634   1.350       .  A
C624        C661   1.493       .  S
Co626      Cl633   2.489       .  S
C634        C858   1.478       .  S
C637        H644   1.084       .  S
C637        C638   1.395       .  A
C637        C642   1.395       .  A
C638        C639   1.411       .  A
C639        C640   1.396       .  A
C639       Br646   1.921       .  S
C640        H645   1.083       .  S
C640        C641   1.398       .  A
C641        C642   1.413       .  A
C642       Br643   1.918       .  S
C647        H654   1.081       .  S
C647        C648   1.403       .  A
C647        C652   1.397       .  A
C648        C649   1.413       .  A
C649        C650   1.393       .  A
C649       Br656   1.923       .  S
C650        H655   1.081       .  S
C650        C651   1.405       .  A
C651        C652   1.413       .  A
C652       Br653   1.914       .  S
C657        H664   1.084       .  S
C657        C658   1.411       .  A
C657        C662   1.408       .  A
C658        C659   1.408       .  A
C659        C660   1.408       .  A
C659       Br666   1.917   1_545  S
C660        H665   1.083       .  S
C660        C661   1.410       .  A
C661        C662   1.410       .  A
C662       Br663   1.919       .  S
C667        H674   1.083       .  S
C667        C668   1.399       .  A
C667        C672   1.399       .  A
C668        C669   1.412       .  A
C669        C670   1.397       .  A
C669       Br676   1.921   1_545  S
C670        H675   1.083       .  S
C670        C671   1.397       .  A
C671        C672   1.412       .  A
C672       Br673   1.922       .  S
C677        H684   1.084       .  S
C677        C678   1.405       .  A
C677        C682   1.397       .  A
C678        C679   1.427       .  A
C679        C680   1.393       .  A
C679       Br686   1.921       .  S
C680        H685   1.085       .  S
C680        C681   1.395   1_545  A
C681        C682   1.404   1_565  A
C682       Br683   1.917   1_545  S
C687        H694   1.084       .  S
C687        C688   1.406   1_565  A
C687        C692   1.402   1_565  A
C688        C689   1.401       .  A
C689        C690   1.391       .  A
C689       Br696   1.915   1_556  S
C690        H695   1.083       .  S
C690        C691   1.407       .  A
C691        C692   1.409       .  A
C692       Br693   1.919   1_545  S
C697        H704   1.084       .  S
C697        C698   1.396       .  A
C697        C702   1.386       .  A
C698        C699   1.421       .  A
C699        C700   1.379       .  A
C699       Br706   1.928       .  S
C700        H705   1.084       .  S
C700        C701   1.389       .  A
C701        C702   1.393       .  A
C702       Br703   1.893       .  S
C707        H714   1.084       .  S
C707        C708   1.403       .  A
C707        C712   1.402       .  A
C708        C709   1.406       .  A
C709        C710   1.384       .  A
C709       Br716   1.924       .  S
C710        H715   1.084       .  S
C710        C711   1.401       .  A
C711        C712   1.408       .  A
C712       Br713   1.918       .  S
C717        H724   1.083       .  S
C717        C718   1.388       .  A
C717        C722   1.368       .  A
C718        C719   1.408       .  A
C719        C720   1.408       .  A
C719       Br726   1.908       .  S
C720        H725   1.083       .  S
C720        C721   1.406       .  A
C721        C722   1.434       .  A
C722       Br723   1.938       .  S
C727        H734   1.083       .  S
C727        C728   1.402       .  A
C727        C732   1.404       .  A
C728        C729   1.410       .  A
C729        C730   1.397       .  A
C729       Br736   1.921       .  S
C730        H735   1.084       .  S
C730        C731   1.402       .  A
C731        C732   1.407       .  A
C732       Br733   1.916       .  S
C737        H744   1.083       .  S
C737        C738   1.410       .  A
C737        C742   1.400       .  A
C738        C739   1.407       .  A
C739        C740   1.408       .  A
C739       Br746   1.917       .  S
C740        H745   1.081       .  S
C740        C741   1.415       .  A
C741        C742   1.412       .  A
C742       Br743   1.922       .  S
C747        H754   1.081       .  S
C747        C748   1.411       .  A
C747        C752   1.389       .  A
C748        C749   1.409       .  A
C749        C750   1.405       .  A
C749       Br756   1.916       .  S
C750        H755   1.083       .  S
C750        C751   1.407       .  A
C751        C752   1.400       .  A
C752       Br753   1.923       .  S
C757        H764   1.083       .  S
C757        C758   1.404       .  A
C757        C762   1.393       .  A
C758        C759   1.410       .  A
C759        C760   1.413       .  A
C759       Br766   1.916       .  S
C760        H765   1.083       .  S
C760        C761   1.409       .  A
C761        C762   1.413       .  A
C762       Br763   1.925       .  S
C767        H774   1.083       .  S
C767        C768   1.401       .  A
C767        C772   1.404       .  A
C768        C769   1.424       .  A
C769        C770   1.404       .  A
C769       Br776   1.923       .  S
C770        H775   1.084       .  S
C770        C771   1.398       .  A
C771        C772   1.414       .  A
C772       Br773   1.919       .  S
C777        H784   1.085       .  S
C777        C778   1.382       .  A
C777        C782   1.390       .  A
C778        C779   1.412       .  A
C779        C780   1.411       .  A
C779       Br786   1.915       .  S
C780        H785   1.083       .  S
C780        C781   1.406       .  A
C781        C782   1.430       .  A
C782       Br783   1.909       .  S
C787        H794   1.084       .  S
C787        C788   1.402   1_455  A
C787        C792   1.406       .  A
C788        C789   1.412       .  A
C789        C790   1.404   1_655  A
C789       Br796   1.919       .  S
C790        H795   1.083       .  S
C790        C791   1.402       .  A
C791        C792   1.413       .  A
C792       Br793   1.915       .  S
C797        H804   1.085       .  S
C797        C798   1.380       .  A
C797        C802   1.384       .  A
C798        C799   1.418       .  A
C799        C800   1.395       .  A
C799       Br806   1.920       .  S
C800        H805   1.084   1_455  S
C800        C801   1.394   1_455  A
C801        C802   1.427   1_655  A
C802       Br803   1.907   1_455  S
C807        H814   1.084       .  S
C807        C808   1.402       .  A
C807        C812   1.395       .  A
C808        C809   1.413   1_554  A
C809        C810   1.396       .  A
C809       Br816   1.919       .  S
C810        H815   1.084       .  S
C810        C811   1.398       .  A
C811        C812   1.407   1_556  A
C812       Br813   1.921       .  S
C817        H824   1.083       .  S
C817        C818   1.406       .  A
C817        C822   1.407       .  A
C818        C819   1.409       .  A
C819        C820   1.403       .  A
C819       Br826   1.921       .  S
C820        H825   1.084       .  S
C820        C821   1.408       .  A
C821        C822   1.407       .  A
C822       Br823   1.911       .  S
C827        H834   1.084       .  S
C827        C828   1.395       .  A
C827        C832   1.395       .  A
C828        C829   1.406       .  A
C829        C830   1.398   1_556  A
C829       Br836   1.919       .  S
C830        H835   1.084       .  S
C830        C831   1.404   1_554  A
C831        C832   1.417       .  A
C832       Br833   1.916       .  S
C837        H844   1.081       .  S
C837        C838   1.402       .  A
C837        C842   1.392       .  A
C838        C839   1.409       .  A
C839        C840   1.402       .  A
C839       Br846   1.919       .  S
C840        H845   1.083       .  S
C840        C841   1.407       .  A
C841        C842   1.412       .  A
C842       Br843   1.923       .  S
C847        H854   1.084       .  S
C847        C848   1.409       .  A
C847        C852   1.402       .  A
C848        C849   1.409       .  A
C849        C850   1.390       .  A
C849       Br856   1.917       .  S
C850        H855   1.083       .  S
C850        C851   1.401       .  A
C851        C852   1.404       .  A
C852       Br853   1.917       .  S
C857        H864   1.083       .  S
C857        C858   1.405       .  A
C857        C862   1.412   1_655  A
C858        C859   1.403   1_655  A
C859        C860   1.390       .  A
C859       Br866   1.919       .  S
C860        H865   1.083       .  S
C860        C861   1.410       .  A
C861        C862   1.418       .  A
C862       Br863   1.914   1_556  S
C867        H874   1.084       .  S
C867        C868   1.403       .  A
C867        C872   1.400   1_455  A
C868        C869   1.410       .  A
C869        C870   1.396       .  A
C869       Br876   1.920       .  S
C870        H875   1.084       .  S
C870        C871   1.400   1_455  A
C871        C872   1.411       .  A
C872       Br873   1.919       .  S
C877        H884   1.084       .  S
C877        C878   1.402       .  A
C877        C882   1.401       .  A
C878        C879   1.412       .  A
C879        C880   1.412       .  A
C879       Br886   1.917       .  S
C880        H885   1.083       .  S
C880        C881   1.406       .  A
C881        C882   1.416       .  A
C882       Br883   1.923       .  S
C887        H894   1.084       .  S
C887        C888   1.406       .  A
C887        C892   1.407       .  A
C888        C889   1.411       .  A
C889        C890   1.411       .  A
C889       Br896   1.918       .  S
C890        H895   1.083       .  S
C890        C891   1.411       .  A
C891        C892   1.415       .  A
C892       Br893   1.919       .  S
C897        H904   1.083       .  S
C897        C898   1.406   1_565  A
C897        C902   1.394   1_565  A
C898        C899   1.410       .  A
C899        C900   1.411       .  A
C899       Br906   1.917       .  S
C900        H905   1.083       .  S
C900        C901   1.409       .  A
C901        C902   1.407       .  A
C902       Br903   1.921   1_545  S
C907        H914   1.084       .  S
C907        C908   1.407   1_545  A
C907        C912   1.402       .  A
C908        C909   1.413       .  A
C909        C910   1.404       .  A
C909       Br916   1.917       .  S
C910        H915   1.084       .  S
C910        C911   1.406   1_565  A
C911        C912   1.412       .  A
C912       Br913   1.921       .  S
C917        H924   1.084       .  S
C917        C918   1.407       .  A
C917        C922   1.400       .  A
C918        C919   1.409       .  A
C919        C920   1.413       .  A
C919       Br926   1.913       .  S
C920        H925   1.083       .  S
C920        C921   1.409       .  A
C921        C922   1.411       .  A
C922       Br923   1.921       .  S
C927        H934   1.083       .  S
C927        C928   1.403       .  A
C927        C932   1.403       .  A
C928        C929   1.410       .  A
C929        C930   1.397       .  A
C929       Br936   1.921       .  S
C930        H935   1.083       .  S
C930        C931   1.405       .  A
C931        C932   1.416       .  A
C932       Br933   1.919       .  S
C937        H944   1.083       .  S
C937        C938   1.411       .  A
C937        C942   1.421       .  A
C938        C939   1.409       .  A
C939        C940   1.407       .  A
C939       Br946   1.921   1_545  S
C940        H945   1.084       .  S
C940        C941   1.416       .  A
C941        C942   1.415       .  A
C942       Br943   1.904       .  S
C947        H954   1.082       .  S
C947        C948   1.417       .  A
C947        C952   1.398       .  A
C948        C949   1.415       .  A
C949        C950   1.413       .  A
C949       Br956   1.915       .  S
C950        H955   1.083       .  S
C950        C951   1.409       .  A
C951        C952   1.403       .  A
C952       Br953   1.922       .  S
C957        H964   1.084       .  S
C957        C958   1.403       .  A
C957        C962   1.397       .  A
C958        C959   1.412       .  A
C959        C960   1.386       .  A
C959       Br966   1.923       .  S
C960        H965   1.083       .  S
C960        C961   1.402       .  A
C961        C962   1.411       .  A
C962       Br963   1.918       .  S
C967        H974   1.083       .  S
C967        C968   1.400       .  A
C967        C972   1.401       .  A
C968        C969   1.420       .  A
C969        C970   1.397       .  A
C969       Br976   1.925       .  S
C970        H975   1.084       .  S
C970        C971   1.396       .  A
C971        C972   1.411       .  A
C972       Br973   1.918       .  S
C977        H984   1.083       .  S
C977        C978   1.408       .  A
C977        C982   1.405       .  A
C978        C979   1.412       .  A
C979        C980   1.410       .  A
C979       Br986   1.919       .  S
C980        H985   1.083       .  S
C980        C981   1.410       .  A
C981        C982   1.409       .  A
C982       Br983   1.918       .  S
C987        H994   1.083       .  S
C987        C988   1.405       .  A
C987        C992   1.403       .  A
C988        C989   1.422       .  A
C989        C990   1.384       .  A
C989       Br996   1.928       .  S
C990        H995   1.085       .  S
C990        C991   1.390       .  A
C991        C992   1.408       .  A
C992       Br993   1.918       .  S
C997       H1004   1.083       .  S
C997        C998   1.403       .  A
C997       C1002   1.406       .  A
C998        C999   1.411   1_556  A
C999       C1000   1.398       .  A
C999      Br1006   1.922       .  S
C1000      H1005   1.083       .  S
C1000      C1001   1.403       .  A
C1001      C1002   1.413   1_554  A
C1002     Br1003   1.918       .  S
C1007      H1014   1.083       .  S
C1007      C1008   1.404       .  A
C1007      C1012   1.410       .  A
C1008      C1009   1.419       .  A
C1009      C1010   1.391       .  A
C1009     Br1016   1.926       .  S
C1010      H1015   1.084       .  S
C1010      C1011   1.397       .  A
C1011      C1012   1.414       .  A
C1012     Br1013   1.916       .  S
C1017      H1024   1.084       .  S
C1017      C1018   1.406       .  A
C1017      C1022   1.405   1_655  A
C1018      C1019   1.408       .  A
C1019      C1020   1.407       .  A
C1019     Br1026   1.910       .  S
C1020      H1025   1.082       .  S
C1020      C1021   1.409   1_655  A
C1021      C1022   1.418       .  A
C1022     Br1023   1.922       .  S
C1027      H1034   1.084       .  S
C1027      C1028   1.407       .  A
C1027      C1032   1.406       .  A
C1028      C1029   1.411       .  A
C1029      C1030   1.411       .  A
C1029     Br1036   1.916   1_455  S
C1030      H1035   1.083       .  S
C1030      C1031   1.407       .  A
C1031      C1032   1.412       .  A
C1032     Br1033   1.921       .  S
C1037      H1044   1.081       .  S
C1037      C1038   1.412       .  A
C1037      C1042   1.385       .  A
C1038      C1039   1.410       .  A
C1039      C1040   1.402       .  A
C1039     Br1046   1.915       .  S
C1040      H1045   1.084       .  S
C1040      C1041   1.404       .  A
C1041      C1042   1.391       .  A
C1042     Br1043   1.924       .  S
C1047      H1054   1.083       .  S
C1047      C1048   1.405       .  A
C1047      C1052   1.392       .  A
C1048      C1049   1.405       .  A
C1049      C1050   1.391       .  A
C1049     Br1056   1.921       .  S
C1050      H1055   1.084       .  S
C1050      C1051   1.401       .  A
C1051      C1052   1.401       .  A
C1052     Br1053   1.919       .  S
C1057      H1064   1.081       .  S
C1057      C1058   1.398       .  A
C1057      C1062   1.416       .  A
C1058      C1059   1.428       .  A
C1059      C1060   1.410       .  A
C1059     Br1066   1.923       .  S
C1060      H1065   1.083       .  S
C1060      C1061   1.400       .  A
C1061      C1062   1.433       .  A
C1062     Br1063   1.919       .  S
C1067      H1074   1.085       .  S
C1067      C1068   1.377       .  A
C1067      C1072   1.379       .  A
C1068      C1069   1.412       .  A
C1069      C1070   1.397       .  A
C1069     Br1076   1.917       .  S
C1070      H1075   1.083       .  S
C1070      C1071   1.397       .  A
C1071      C1072   1.426       .  A
C1072     Br1073   1.909       .  S
C1077      H1084   1.083       .  S
C1077      C1078   1.422       .  A
C1077      C1082   1.406   1_655  A
C1078      C1079   1.409       .  A
C1079      C1080   1.418       .  A
C1079     Br1086   1.915       .  S
C1080      H1085   1.083   1_655  S
C1080      C1081   1.420   1_655  A
C1081      C1082   1.405       .  A
C1082     Br1083   1.919       .  S
C1087      H1094   1.084       .  S
C1087      C1088   1.401       .  A
C1087      C1092   1.386       .  A
C1088      C1089   1.393       .  A
C1089      C1090   1.382   1_455  A
C1089     Br1096   1.920       .  S
C1090      H1095   1.083       .  S
C1090      C1091   1.408       .  A
C1091      C1092   1.402   1_655  A
C1092     Br1093   1.918       .  S
C1097      H1104   1.083       .  S
C1097      C1098   1.405       .  A
C1097      C1102   1.416       .  A
C1098      C1099   1.426       .  A
C1099      C1100   1.417       .  A
C1099     Br1106   1.914       .  S
C1100      H1105   1.083       .  S
C1100      C1101   1.405       .  A
C1101      C1102   1.423       .  A
C1102     Br1103   1.920       .  S
C1107      H1114   1.083       .  S
C1107      C1108   1.417       .  A
C1107      C1112   1.416       .  A
C1108      C1109   1.410       .  A
C1109      C1110   1.412       .  A
C1109     Br1116   1.918       .  S
C1110      H1115   1.083       .  S
C1110      C1111   1.417       .  A
C1111      C1112   1.408       .  A
C1112     Br1113   1.915       .  S
