geometry optimzed in LAMMPS
_audit_creation_date              2020-11-30 
_audit_creation_method            'lammps2cif' 
_symmetry_space_group_name_H-M    'P1' 
_symmetry_Int_Tables_number       1 
_symmetry_cell_setting            triclinic 
loop_ 
_symmetry_equiv_pos_as_xyz 
  x,y,z 
_cell_length_a                    88.6153032 
_cell_length_b                    88.26120692442501 
_cell_length_c                    88.2233075217828 
_cell_angle_alpha                 89.9971168277126 
_cell_angle_beta                  90.0205416182289 
_cell_angle_gamma                 89.99431526656689 
loop_ 
_atom_site_label 
_atom_site_type_symbol 
_atom_site_fract_x 
_atom_site_fract_y 
_atom_site_fract_z 
_atom_site_charge 
N1          N  0.74680257  0.89785595  0.39827228    -0.02400
C2          C  0.73995663  0.89802525  0.38456288     0.00200
C3          C  0.74192049  0.88425939  0.37733720    -0.22700
C4          C  0.75012865  0.87526106  0.38706864    -0.22900
C5          C  0.75320398  0.88402236  0.39965406     0.00100
H6          H  0.73790775  0.88114093  0.36617658     0.13800
H7          H  0.75377415  0.86373627  0.38502980     0.13900
N8          N  0.74732023  0.89500413  0.58859069    -0.02400
C9          C  0.74121849  0.89527188  0.60265988     0.00200
C10         C  0.74404033  0.88174735  0.61004924    -0.22700
C11         C  0.75197451  0.87279059  0.60007277    -0.22900
C12         C  0.75403326  0.88131235  0.58709531     0.00100
H13         H  0.74076228  0.87875645  0.62148099     0.13800
H14         H  0.75607454  0.86143050  0.60217354     0.13900
N15         N  0.74921609  0.08725336  0.40102739    -0.02400
C16         C  0.74382825  0.08544264  0.38678581     0.00200
C17         C  0.74546013  0.09866657  0.37859858    -0.22700
C18         C  0.75183505  0.10909926  0.38826107    -0.22900
C19         C  0.75419756  0.10175965  0.40189552     0.00100
H20         H  0.74214637  0.10058772  0.36694583     0.13800
H21         H  0.75468690  0.12070980  0.38554718     0.13900
N22         N  0.74512832  0.08671136  0.58860076    -0.02400
C23         C  0.73987564  0.08524468  0.60291666     0.00200
C24         C  0.74034836  0.09901482  0.61032168    -0.22700
C25         C  0.74580915  0.10938860  0.60003814    -0.22900
C26         C  0.74877033  0.10151043  0.58682728     0.00100
H27         H  0.73676942  0.10133991  0.62181662     0.13800
H28         H  0.74769331  0.12133141  0.60208142     0.13900
O29         O  0.73419577  0.00630561  0.50978107    -0.73400
O30         O  0.73513043  0.97556847  0.47919315    -0.73400
O31         O  0.73459594  0.97555401  0.50997830    -0.73500
O32         O  0.73478262  0.00635822  0.47922133    -0.73500
O33         O  0.75996289  0.00653344  0.47953959    -0.73400
O34         O  0.75977156  0.97587070  0.51032439    -0.73400
O35         O  0.76030928  0.97585714  0.47960468    -0.73400
O36         O  0.75937635  0.00645102  0.51048423    -0.73500
Ni37       Ni  0.73377987  0.99091521  0.49451917     1.25400
Ni38       Ni  0.76075369  0.99120091  0.49499669     1.25400
C39         C  0.74661141  0.01137028  0.51519808     0.88800
C40         C  0.74785341  0.97069738  0.47433717     0.88700
C41         C  0.74718466  0.97071464  0.51525078     0.88800
C42         C  0.74740116  0.01153224  0.47436994     0.88900
N43         N  0.91579725  0.76065391  0.39427712    -0.02400
C44         C  0.91733418  0.75614519  0.37965957     0.00200
C45         C  0.90452863  0.75979285  0.37145159    -0.22700
C46         C  0.89465208  0.76644075  0.38140299    -0.22900
C47         C  0.90185043  0.76689920  0.39528074     0.00100
H48         H  0.90233365  0.75734308  0.35963521     0.13800
H49         H  0.88333100  0.77028191  0.37885726     0.13900
N50         N  0.91292536  0.75787812  0.59108958    -0.02400
C51         C  0.91383556  0.75318387  0.60568165     0.00200
C52         C  0.90215748  0.75933355  0.61410125    -0.22700
C53         C  0.89368428  0.76797704  0.60432310    -0.22900
C54         C  0.90062180  0.76697567  0.59037982     0.00100
H55         H  0.89998993  0.75766157  0.62605791     0.13800
H56         H  0.88352888  0.77422020  0.60704912     0.13900
N57         N  0.10064460  0.74878904  0.39983080    -0.02400
C58         C  0.09908042  0.74457232  0.38513970     0.00200
C59         C  0.11196507  0.74798608  0.37702824    -0.22700
C60         C  0.12190318  0.75438673  0.38711022    -0.22900
C61         C  0.11461322  0.75494043  0.40095827     0.00100
H62         H  0.11395178  0.74595233  0.36509577     0.13800
H63         H  0.13312554  0.75848673  0.38454016     0.13900
N64         N  0.09881641  0.74417687  0.58970617    -0.02400
C65         C  0.09722389  0.73833794  0.60379986     0.00200
C66         C  0.11023602  0.74054596  0.61214156    -0.22700
C67         C  0.12029636  0.74777187  0.60273862    -0.22900
C68         C  0.11295769  0.75003639  0.58908447     0.00100
H69         H  0.11218248  0.73728657  0.62380781     0.13800
H70         H  0.13164205  0.75126419  0.60565093     0.13900
O71         O  0.02066100  0.75873224  0.51012227    -0.73400
O72         O  0.99070513  0.76194346  0.47888878    -0.73400
O73         O  0.99024113  0.76071691  0.50963760    -0.73500
O74         O  0.02118344  0.75999686  0.47941028    -0.73500
O75         O  0.01976682  0.73479357  0.47824149    -0.73400
O76         O  0.98872067  0.73549918  0.50887245    -0.73400
O77         O  0.98915507  0.73674061  0.47785392    -0.73400
O78         O  0.01927402  0.73351367  0.50911053    -0.73500
Ni79       Ni  0.00574652  0.76121827  0.49454757     1.25400
Ni80       Ni  0.00414736  0.73422007  0.49347367     1.25400
C81         C  0.02485343  0.74564973  0.51479470     0.88800
C82         C  0.98510596  0.74987206  0.47312023     0.88700
C83         C  0.98454557  0.74827472  0.51440837     0.88800
C84         C  0.02556160  0.74735060  0.47380623     0.88900
N85         N  0.25804104  0.90414126  0.40627801    -0.02400
C86         C  0.26485263  0.90526950  0.39255711     0.00200
C87         C  0.26362689  0.89178496  0.38472696    -0.22700
C88         C  0.25606487  0.88189846  0.39408721    -0.22900
C89         C  0.25261002  0.88981197  0.40717311     0.00100
H90         H  0.26775761  0.88941460  0.37342969     0.13800
H91         H  0.25323534  0.87024301  0.39154602     0.13900
N92         N  0.25113330  0.90099473  0.59582354    -0.02400
C93         C  0.25540851  0.90188010  0.61051930     0.00200
C94         C  0.25397772  0.88788500  0.61742692    -0.22700
C95         C  0.24879126  0.87804700  0.60649900    -0.22900
C96         C  0.24698315  0.88641548  0.59338542     0.00100
H97         H  0.25669452  0.88503616  0.62904111     0.13800
H98         H  0.24633852  0.86613142  0.60803647     0.13900
N99         N  0.25464040  0.09629486  0.41144577    -0.02400
C100        C  0.24931641  0.11065345  0.41268768     0.00200
C101        C  0.25194426  0.11858922  0.39944427    -0.22700
C102        C  0.25877045  0.10868533  0.38957932    -0.22900
C103        C  0.26042792  0.09517975  0.39728078     0.00100
H104        H  0.24884166  0.13021017  0.39706239     0.13800
H105        H  0.26216293  0.11106901  0.37803867     0.13900
N106        N  0.24999684  0.09320293  0.59656740    -0.02400
C107        C  0.24437395  0.10737260  0.59488509     0.00200
C108        C  0.24607057  0.11553133  0.60812533    -0.22700
C109        C  0.25262959  0.10592378  0.61846478    -0.22900
C110        C  0.25502994  0.09234632  0.61103796     0.00100
H111        H  0.24270085  0.12715058  0.61010982     0.13800
H112        H  0.25551456  0.10861948  0.63007687     0.13900
O113        O  0.23797940  0.01231534  0.51797389    -0.73400
O114        O  0.23898626  0.98174997  0.48711486    -0.73400
O115        O  0.23910943  0.98171344  0.51795864    -0.73500
O116        O  0.23799698  0.01259166  0.48715051    -0.73500
O117        O  0.26313851  0.01378807  0.48773746    -0.73400
O118        O  0.26427985  0.98211121  0.51740372    -0.73400
O119        O  0.26412850  0.98306460  0.48668648    -0.73400
O120        O  0.26315568  0.01279583  0.51835145    -0.73500
Ni121      Ni  0.23760779  0.99704826  0.50252491     1.25400
Ni122      Ni  0.26456077  0.99795579  0.50252705     1.25400
C123        C  0.25040046  0.01747674  0.52331646     0.88800
C124        C  0.25172932  0.97743322  0.48178893     0.88700
C125        C  0.25189641  0.97688916  0.52275484     0.88800
C126        C  0.25045117  0.01844336  0.48259117     0.88900
N127        N  0.39824563  0.90439364  0.24698079    -0.02400
C128        C  0.39919083  0.88991996  0.24188597     0.00200
C129        C  0.38585507  0.88231004  0.24461579    -0.22700
C130        C  0.37627041  0.89253104  0.25140521    -0.22900
C131        C  0.38420651  0.90595100  0.25290458     0.00100
H132        H  0.38336416  0.87060770  0.24193772     0.13800
H133        H  0.36484341  0.89030877  0.25511958     0.13900
N134        N  0.58829718  0.89894164  0.24925649    -0.02400
C135        C  0.58759059  0.88449977  0.24415541     0.00200
C136        C  0.60098099  0.87700051  0.24701610    -0.22700
C137        C  0.61036913  0.88729941  0.25390189    -0.22900
C138        C  0.60221524  0.90054802  0.25533826     0.00100
H139        H  0.60371257  0.86539690  0.24414958     0.13800
H140        H  0.62189340  0.88535107  0.25747339     0.13900
N141        N  0.40126754  0.09031059  0.23585816    -0.02400
C142        C  0.40298476  0.10486298  0.23129110     0.00200
C143        C  0.38972641  0.11280946  0.23337310    -0.22700
C144        C  0.37946502  0.10275366  0.23936317    -0.22900
C145        C  0.38691293  0.08909469  0.24104722     0.00100
H146        H  0.38776212  0.12466200  0.23092026     0.13800
H147        H  0.36804520  0.10535022  0.24285085     0.13900
N148        N  0.59304897  0.08807340  0.24312509    -0.02400
C149        C  0.59186935  0.10248834  0.23803017     0.00200
C150        C  0.60561959  0.10977858  0.23916875    -0.22700
C151        C  0.61566875  0.09935615  0.24491354    -0.22900
C152        C  0.60760150  0.08619562  0.24737172     0.00100
H153        H  0.60813963  0.12132439  0.23590288     0.13800
H154        H  0.62748143  0.10128317  0.24736886     0.13900
O155        O  0.51181009  0.01010988  0.23144066    -0.73400
O156        O  0.48085948  0.97970853  0.23291810    -0.73400
O157        O  0.48096239  0.01029638  0.23053453    -0.73500
O158        O  0.51139507  0.97958808  0.23363411    -0.73500
O159        O  0.51072812  0.98131315  0.25886007    -0.73400
O160        O  0.48067153  0.01252212  0.25572960    -0.73400
O161        O  0.48010499  0.98186469  0.25810911    -0.73400
O162        O  0.51113963  0.01202267  0.25665710    -0.73500
Ni163      Ni  0.49627505  0.99488804  0.23123034     1.25400
Ni164      Ni  0.49563564  0.99699068  0.25823821     1.25400
C165        C  0.51664879  0.01593903  0.24384006     0.88800
C166        C  0.47540210  0.97581477  0.24578482     0.88700
C167        C  0.47582714  0.01646319  0.24261716     0.88800
C168        C  0.51600924  0.97534991  0.24670943     0.88900
N169        N  0.39973989  0.74890690  0.90562573    -0.02400
C170        C  0.40121541  0.75596556  0.89206301     0.00200
C171        C  0.38783164  0.75532194  0.88408444    -0.22700
C172        C  0.37761147  0.74800769  0.89322446    -0.22900
C173        C  0.38521937  0.74410371  0.90634614     0.00100
H174        H  0.38570717  0.75979023  0.87285944     0.13800
H175        H  0.36593544  0.74565069  0.89050646     0.13900
N176        N  0.58779855  0.74199327  0.90636287    -0.02400
C177        C  0.60142307  0.73501016  0.90692788     0.00200
C178        C  0.60881746  0.73647553  0.89321584    -0.22700
C179        C  0.59927870  0.74432158  0.88375593    -0.22900
C180        C  0.58654566  0.74770190  0.89212673     0.00100
H181        H  0.61989668  0.73217105  0.89036311     0.13800
H182        H  0.60141673  0.74730506  0.87205089     0.13900
N183        N  0.39856032  0.74416215  0.09633813    -0.02400
C184        C  0.39968285  0.74867803  0.11098340     0.00200
C185        C  0.38617839  0.74624237  0.11846226    -0.22700
C186        C  0.37639152  0.74016202  0.10803435    -0.22900
C187        C  0.38434533  0.73883938  0.09464145     0.00100
H188        H  0.38365414  0.74873665  0.13020187     0.13800
H189        H  0.36482542  0.73679738  0.11007684     0.13900
N190        N  0.58398122  0.73649873  0.09988958    -0.02400
C191        C  0.58313041  0.74130477  0.11444750     0.00200
C192        C  0.59632853  0.73773961  0.12205627    -0.22700
C193        C  0.60565474  0.73072471  0.11173018    -0.22900
C194        C  0.59771629  0.72995131  0.09829792     0.00100
H195        H  0.59902442  0.74023286  0.13375805     0.13800
H196        H  0.61696031  0.72657562  0.11381000     0.13900
O197        O  0.50776144  0.72908522  0.01704714    -0.73400
O198        O  0.47798689  0.73042705  0.98535884    -0.73400
O199        O  0.50863934  0.72966473  0.98629502    -0.73500
O200        O  0.47715110  0.72974325  0.01607294    -0.73500
O201        O  0.47803823  0.75499285  0.01692873    -0.73400
O202        O  0.50897798  0.75494103  0.98644064    -0.73400
O203        O  0.47842359  0.75568635  0.98628123    -0.73400
O204        O  0.50867618  0.75434815  0.01719171    -0.73500
Ni205      Ni  0.49287696  0.72882109  0.00117024     1.25400
Ni206      Ni  0.49355837  0.75588377  0.00173503     1.25400
C207        C  0.51312401  0.74151763  0.02228627     0.88800
C208        C  0.47323422  0.74333840  0.98072510     0.88700
C209        C  0.51392227  0.74226309  0.98140362     0.88800
C210        C  0.47241055  0.74238348  0.02138940     0.88900
N211        N  0.40418317  0.89763212  0.74344920    -0.02400
C212        C  0.40604083  0.88343969  0.74896147     0.00200
C213        C  0.39294232  0.87512958  0.74712286    -0.22700
C214        C  0.38255905  0.88467045  0.74056039    -0.22900
C215        C  0.38977668  0.89837537  0.73833350     0.00100
H216        H  0.39102331  0.86350626  0.75052376     0.13800
H217        H  0.37099840  0.88190515  0.73772665     0.13900
N218        N  0.59457409  0.89726623  0.74871494    -0.02400
C219        C  0.59339032  0.88344046  0.75532515     0.00200
C220        C  0.60671513  0.87548629  0.75365913    -0.22700
C221        C  0.61654647  0.88486312  0.74607174    -0.22900
C222        C  0.60873351  0.89804206  0.74300026     0.00100
H223        H  0.60908380  0.86414635  0.75768105     0.13800
H224        H  0.62806516  0.88226474  0.74293385     0.13900
N225        N  0.40863747  0.08981413  0.74933765    -0.02400
C226        C  0.40987704  0.10428262  0.75435349     0.00200
C227        C  0.39617523  0.11163632  0.75300466    -0.22700
C228        C  0.38611615  0.10124943  0.74722437    -0.22900
C229        C  0.39410727  0.08802216  0.74491222     0.00100
H230        H  0.39369910  0.12323649  0.75611088     0.13800
H231        H  0.37433583  0.10323493  0.74466357     0.13900
N232        N  0.59534404  0.08537100  0.74739912    -0.02400
C233        C  0.59453287  0.09981528  0.75258707     0.00200
C234        C  0.60820742  0.10704813  0.75059351    -0.22700
C235        C  0.61783856  0.09661671  0.74420939    -0.22900
C236        C  0.60960646  0.08348505  0.74215750     0.00100
H237        H  0.61092804  0.11862105  0.75359468     0.13800
H238        H  0.62950417  0.09850702  0.74111142     0.13900
O239        O  0.48431226  0.00654782  0.75877099    -0.73400
O240        O  0.51519000  0.97622930  0.75779627    -0.73400
O241        O  0.51504714  0.00680770  0.75843234    -0.73500
O242        O  0.48454192  0.97594883  0.75804003    -0.73500
O243        O  0.48392630  0.97680024  0.73277015    -0.73400
O244        O  0.51490867  0.00713331  0.73314138    -0.73400
O245        O  0.51459083  0.97632217  0.73250904    -0.73400
O246        O  0.48438844  0.00757457  0.73349625    -0.73500
Ni247      Ni  0.49977558  0.99136309  0.75915409     1.25400
Ni248      Ni  0.49944730  0.99196268  0.73206960     1.25400
C249        C  0.47933422  0.01210403  0.74632478     0.88800
C250        C  0.51996229  0.97128238  0.74503363     0.88700
C251        C  0.52003891  0.01198145  0.74582515     0.88800
C252        C  0.47912628  0.97141108  0.74535439     0.88900
N253        N  0.40868732  0.25165286  0.89464836    -0.02400
C254        C  0.39488908  0.25818897  0.89570573     0.00200
C255        C  0.38715503  0.25674470  0.88219590    -0.22700
C256        C  0.39666890  0.24935761  0.87234662    -0.22900
C257        C  0.40973063  0.24623164  0.88034143     0.00100
H258        H  0.37588448  0.26078106  0.87972573     0.13800
H259        H  0.39423799  0.24640428  0.86069177     0.13900
N260        N  0.60115645  0.24612940  0.90116507    -0.02400
C261        C  0.61549358  0.25134691  0.90247382     0.00200
C262        C  0.62342491  0.24847503  0.88927283    -0.22700
C263        C  0.61357987  0.24142506  0.87948256    -0.22900
C264        C  0.60010423  0.23988660  0.88716020     0.00100
H265        H  0.63507716  0.25132074  0.88695103     0.13800
H266        H  0.61604319  0.23764353  0.86807875     0.13900
N267        N  0.40859436  0.24865492  0.08739081    -0.02400
C268        C  0.39496355  0.25539615  0.08587297     0.00200
C269        C  0.38671338  0.25410365  0.09906240    -0.22700
C270        C  0.39580605  0.24667259  0.10928389    -0.22900
C271        C  0.40914580  0.24338415  0.10181352     0.00100
H272        H  0.37541545  0.25829722  0.10109003     0.13800
H273        H  0.39296111  0.24391252  0.12088915     0.13900
N274        N  0.59609072  0.24409995  0.08669786    -0.02400
C275        C  0.59539367  0.23880181  0.10109868     0.00200
C276        C  0.60917427  0.24060692  0.10823486    -0.22700
C277        C  0.61871829  0.24706238  0.09780393    -0.22900
C278        C  0.61035555  0.24928902  0.08478754     0.00100
H279        H  0.61204687  0.23737889  0.11971485     0.13800
H280        H  0.63044698  0.24999421  0.09958024     0.13900
O281        O  0.48655262  0.25895860  0.00611361    -0.73400
O282        O  0.51779170  0.25853433  0.97610218    -0.73400
O283        O  0.48720233  0.25898336  0.97531390    -0.73500
O284        O  0.51712602  0.25845203  0.00677787    -0.73500
O285        O  0.51706185  0.23317768  0.00652372    -0.73400
O286        O  0.48636206  0.23372626  0.97569989    -0.73400
O287        O  0.51708929  0.23326551  0.97581850    -0.73400
O288        O  0.48637134  0.23368709  0.00653675    -0.73500
Ni289      Ni  0.50216010  0.25962089  0.99107685     1.25400
Ni290      Ni  0.50168903  0.23255467  0.99113046     1.25400
C291        C  0.48143205  0.24644382  0.01138045     0.88800
C292        C  0.52263890  0.24582501  0.97109528     0.88700
C293        C  0.48183262  0.24645055  0.97035295     0.88800
C294        C  0.52212137  0.24574766  0.01172145     0.88900
N295        N  0.25334053  0.40470738  0.89811247    -0.02400
C296        C  0.24750949  0.40633321  0.88397664     0.00200
C297        C  0.25053816  0.39365686  0.87532829    -0.22700
C298        C  0.25819304  0.38372555  0.88450533    -0.22900
C299        C  0.25989728  0.39082162  0.89836668     0.00100
H300        H  0.24744508  0.39180801  0.86360397     0.13800
H301        H  0.26223269  0.37259336  0.88134496     0.13900
N302        N  0.24922254  0.59102526  0.90026310    -0.02400
C303        C  0.24393147  0.58977522  0.88593091     0.00200
C304        C  0.24557745  0.60335066  0.87833330    -0.22700
C305        C  0.25184121  0.61339604  0.88850100    -0.22900
C306        C  0.25413818  0.60547586  0.90181656     0.00100
H307        H  0.24226335  0.60578284  0.86677815     0.13800
H308        H  0.25458331  0.62515008  0.88635336     0.13900
N309        N  0.25344506  0.40126311  0.08946994    -0.02400
C310        C  0.26043045  0.38766413  0.08824410     0.00200
C311        C  0.25816227  0.37914279  0.10115579    -0.22700
C312        C  0.24986132  0.38797622  0.11088991    -0.22900
C313        C  0.24700655  0.40144279  0.10341132     0.00100
H314        H  0.26219077  0.36776420  0.10329181     0.13800
H315        H  0.24626263  0.38489941  0.12220021     0.13900
N316        N  0.24952770  0.58828607  0.09395325    -0.02400
C317        C  0.24607785  0.58621248  0.10877482     0.00200
C318        C  0.24989714  0.59890966  0.11711900    -0.22700
C319        C  0.25577362  0.60922738  0.10704436    -0.22900
C320        C  0.25560113  0.60230826  0.09300661     0.00100
H321        H  0.24840954  0.60055518  0.12918331     0.13800
H322        H  0.25998638  0.62042681  0.10970423     0.13900
O323        O  0.23538325  0.48068571  0.98082551    -0.73400
O324        O  0.23487837  0.51204448  0.01108162    -0.73400
O325        O  0.23401807  0.51151046  0.98028831    -0.73500
O326        O  0.23636222  0.48127582  0.01154584    -0.73500
O327        O  0.26149867  0.48269931  0.01095471    -0.73400
O328        O  0.25917700  0.51203171  0.97920736    -0.73400
O329        O  0.25998875  0.51339052  0.00986534    -0.73400
O330        O  0.26054614  0.48153168  0.98037710    -0.73500
Ni331      Ni  0.23424010  0.49634561  0.99596570     1.25400
Ni332      Ni  0.26117672  0.49747420  0.99509569     1.25400
C333        C  0.24806550  0.47591652  0.97570057     0.88800
C334        C  0.24738874  0.51790919  0.01538983     0.88700
C335        C  0.24629701  0.51660536  0.97453420     0.88800
C336        C  0.24934496  0.47697142  0.01629468     0.88900
N337        N  0.89738048  0.41283888  0.73597174    -0.02400
C338        C  0.88355213  0.41316974  0.74252898     0.00200
C339        C  0.87545354  0.40034393  0.73863399    -0.22700
C340        C  0.88473200  0.39167717  0.72966625    -0.22900
C341        C  0.89800772  0.39966807  0.72807574     0.00100
H342        H  0.86417843  0.39738170  0.74229752     0.13800
H343        H  0.88223025  0.38055864  0.72514045     0.13900
N344        N  0.90410982  0.59984769  0.74918424    -0.02400
C345        C  0.90576145  0.61405259  0.74370165     0.00200
C346        C  0.89306630  0.62257834  0.74680496    -0.22700
C347        C  0.88309958  0.61309190  0.75415225    -0.22900
C348        C  0.89025597  0.59925747  0.75561770     0.00100
H349        H  0.89114004  0.63430698  0.74379147     0.13800
H350        H  0.87193806  0.61602764  0.75816868     0.13900
N351        N  0.09072813  0.40879104  0.73902501    -0.02400
C352        C  0.10494819  0.40938057  0.74462619     0.00200
C353        C  0.11264406  0.39621701  0.74115744    -0.22700
C354        C  0.10268055  0.38704189  0.73351070    -0.22900
C355        C  0.08940240  0.39510699  0.73219327     0.00100
H356        H  0.12416117  0.39344846  0.74416677     0.13800
H357        H  0.10486620  0.37570352  0.72938855     0.13900
N358        N  0.09139362  0.59645978  0.75160896    -0.02400
C359        C  0.09124950  0.61049731  0.74545403     0.00200
C360        C  0.10426185  0.61822075  0.74945243    -0.22700
C361        C  0.11275306  0.60846367  0.75813259    -0.22900
C362        C  0.10447595  0.59530062  0.75942901     0.00100
H363        H  0.10741269  0.62959682  0.74615153     0.13800
H364        H  0.12388172  0.61061096  0.76270872     0.13900
O365        O  0.01206032  0.51687305  0.75754078    -0.73400
O366        O  0.97934201  0.48852794  0.75571548    -0.73400
O367        O  0.00991811  0.48624888  0.75648231    -0.73500
O368        O  0.98171637  0.51918926  0.75678936    -0.73500
O369        O  0.98181563  0.51950584  0.73148699    -0.73400
O370        O  0.01092738  0.48749113  0.73123374    -0.73400
O371        O  0.98033797  0.48893917  0.73044346    -0.73400
O372        O  0.01234399  0.51802976  0.73226743    -0.73500
Ni373      Ni  0.99572512  0.50264995  0.75754281     1.25400
Ni374      Ni  0.99637979  0.50350501  0.73045980     1.25400
C375        C  0.01744377  0.52222894  0.74518807     0.88800
C376        C  0.97446246  0.48408685  0.74277762     0.88700
C377        C  0.01526012  0.48166693  0.74379007     0.88800
C378        C  0.97711593  0.52470633  0.74418529     0.88900
N379        N  0.75878478  0.40363711  0.90654816    -0.02400
C380        C  0.76501187  0.40503936  0.89262517     0.00200
C381        C  0.76355578  0.39167946  0.88462264    -0.22700
C382        C  0.75647970  0.38156921  0.89414051    -0.22900
C383        C  0.75352336  0.38928337  0.90745610     0.00100
H384        H  0.76722741  0.38952962  0.87312366     0.13800
H385        H  0.75350302  0.36997198  0.89150693     0.13900
N386        N  0.74852950  0.59363674  0.90727793    -0.02400
C387        C  0.75504728  0.59249356  0.89346893     0.00200
C388        C  0.75213167  0.60530663  0.88497526    -0.22700
C389        C  0.74375891  0.61480915  0.89402535    -0.22900
C390        C  0.74155244  0.60730872  0.90761888     0.00100
H391        H  0.75557760  0.60743023  0.87340047     0.13800
H392        H  0.73945505  0.62584749  0.89088781     0.13900
N393        N  0.76006814  0.39851025  0.09068206    -0.02400
C394        C  0.76519334  0.40000823  0.10510810     0.00200
C395        C  0.76248610  0.38687476  0.11316719    -0.22700
C396        C  0.75567961  0.37689473  0.10329770    -0.22900
C397        C  0.75410261  0.38442114  0.08964149     0.00100
H398        H  0.76500676  0.38483890  0.12499712     0.13800
H399        H  0.75177258  0.36558930  0.10597076     0.13900
N400        N  0.74032572  0.58743229  0.10070576    -0.02400
C401        C  0.74627900  0.58743991  0.11484563     0.00200
C402        C  0.74242332  0.60065444  0.12233919    -0.22700
C403        C  0.73408995  0.60917816  0.11232023    -0.22900
C404        C  0.73281525  0.60073490  0.09921189     0.00100
H405        H  0.74576170  0.60400053  0.13365489     0.13800
H406        H  0.72968956  0.62044895  0.11427417     0.13900
O407        O  0.74132354  0.51353305  0.98636461    -0.73400
O408        O  0.74237618  0.48153059  0.01568689    -0.73400
O409        O  0.74048452  0.51207505  0.01709427    -0.73500
O410        O  0.74309673  0.48293664  0.98509390    -0.73500
O411        O  0.76823653  0.48424067  0.98591975    -0.73400
O412        O  0.76560183  0.51375656  0.01780901    -0.73400
O413        O  0.76750770  0.48305753  0.01645546    -0.73400
O414        O  0.76645889  0.51495661  0.98704420    -0.73500
Ni415      Ni  0.74092912  0.49749680  0.00103164     1.25400
Ni416      Ni  0.76785378  0.49909251  0.00183096     1.25400
C417        C  0.75372870  0.51941768  0.98180553     0.88800
C418        C  0.75513379  0.47694407  0.02075853     0.88700
C419        C  0.75256578  0.51761995  0.02279240     0.88800
C420        C  0.75607157  0.47862519  0.98041181     0.88900
N421        N  0.90737618  0.39918541  0.24349322    -0.02400
C422        C  0.90851895  0.38465045  0.24818487     0.00200
C423        C  0.89501185  0.37717970  0.24588655    -0.22700
C424        C  0.88513036  0.38769271  0.23989984    -0.22900
C425        C  0.89310310  0.40106752  0.23841078     0.00100
H426        H  0.89246991  0.36552281  0.24870729     0.13800
H427        H  0.87344835  0.38576141  0.23688646     0.13900
N428        N  0.91007089  0.59170213  0.24760506    -0.02400
C429        C  0.91184323  0.60592038  0.25313468     0.00200
C430        C  0.89903451  0.61442814  0.25046164    -0.22700
C431        C  0.88891786  0.60503833  0.24326777    -0.22900
C432        C  0.89609040  0.59127846  0.24141721     0.00100
H433        H  0.89727022  0.62620872  0.25337296     0.13800
H434        H  0.87769564  0.60803004  0.23946058     0.13900
N435        N  0.09558340  0.39854800  0.24845840    -0.02400
C436        C  0.09352042  0.38408021  0.25313853     0.00200
C437        C  0.10602994  0.37539046  0.24974956    -0.22700
C438        C  0.11630493  0.38491478  0.24302426    -0.22900
C439        C  0.10953140  0.39899342  0.24221061     0.00100
H440        H  0.10749781  0.36340579  0.25188990     0.13800
H441        H  0.12733334  0.38180538  0.23877031     0.13900
N442        N  0.09746131  0.58658595  0.25017121    -0.02400
C443        C  0.09707804  0.60027344  0.25706680     0.00200
C444        C  0.11075042  0.60757126  0.25550660    -0.22700
C445        C  0.11999927  0.59783737  0.24759065    -0.22900
C446        C  0.11149716  0.58509525  0.24433983     0.00100
H447        H  0.11369619  0.61869567  0.25973247     0.13800
H448        H  0.13166710  0.59981921  0.24456504     0.13900
O449        O  0.01715065  0.50846293  0.23773650    -0.73400
O450        O  0.98642256  0.47824613  0.23750755    -0.73400
O451        O  0.98670175  0.50899339  0.23694916    -0.73500
O452        O  0.01679240  0.47789210  0.23841730    -0.73500
O453        O  0.01616022  0.47831149  0.26370414    -0.73400
O454        O  0.98598193  0.50950705  0.26222807    -0.73400
O455        O  0.98553062  0.47877569  0.26279215    -0.73400
O456        O  0.01660141  0.50906217  0.26302460    -0.73500
Ni457      Ni  0.00177018  0.49338703  0.23677088     1.25400
Ni458      Ni  0.00103560  0.49393378  0.26386341     1.25400
C459        C  0.02196878  0.51369690  0.25036040     0.88800
C460        C  0.98101042  0.47346194  0.25005615     0.88700
C461        C  0.98145585  0.51442618  0.24934354     0.88800
C462        C  0.02143462  0.47300663  0.25126206     0.88900
N463        N  0.90382184  0.24699399  0.40497314    -0.02400
C464        C  0.90454152  0.25338934  0.39099889     0.00200
C465        C  0.89096537  0.25175229  0.38351283    -0.22700
C466        C  0.88137679  0.24449607  0.39335908    -0.22900
C467        C  0.88955005  0.24158992  0.40639732     0.00100
H468        H  0.88829029  0.25555050  0.37215984     0.13800
H469        H  0.86971894  0.24154224  0.39119651     0.13900
N470        N  0.90272461  0.24503978  0.59067749    -0.02400
C471        C  0.90291893  0.25124140  0.60473796     0.00200
C472        C  0.89059900  0.24618381  0.61298612    -0.22700
C473        C  0.88269914  0.23645891  0.60377203    -0.22900
C474        C  0.89044091  0.23590180  0.59024203     0.00100
H475        H  0.88779412  0.24899744  0.62458618     0.13800
H476        H  0.87246129  0.23041996  0.60663516     0.13900
N477        N  0.09406533  0.24509854  0.40361242    -0.02400
C478        C  0.09265225  0.24956595  0.38898925     0.00200
C479        C  0.10602645  0.24710314  0.38129654    -0.22700
C480        C  0.11600980  0.24105722  0.39159000    -0.22900
C481        C  0.10833493  0.23972485  0.40514579     0.00100
H482        H  0.10834866  0.24958566  0.36951358     0.13800
H483        H  0.12754695  0.23772021  0.38934438     0.13900
N484        N  0.09263525  0.25035221  0.59600889    -0.02400
C485        C  0.09043947  0.25614818  0.61006145     0.00200
C486        C  0.10330586  0.25452847  0.61876167    -0.22700
C487        C  0.11387685  0.24766962  0.60968967    -0.22900
C488        C  0.10699759  0.24507264  0.59585491     0.00100
H489        H  0.10488671  0.25809351  0.63039423     0.13800
H490        H  0.12527633  0.24467852  0.61292884     0.13900
O491        O  0.01495358  0.25989899  0.51449641    -0.73400
O492        O  0.98542147  0.25990310  0.48258162    -0.73400
O493        O  0.98436531  0.26053810  0.51333949    -0.73500
O494        O  0.01603107  0.25932886  0.48373060    -0.73500
O495        O  0.01524447  0.23405801  0.48390800    -0.73400
O496        O  0.98397814  0.23526013  0.51381088    -0.73400
O497        O  0.98473683  0.23464367  0.48309987    -0.73400
O498        O  0.01456435  0.23463194  0.51479215    -0.73500
Ni499      Ni  0.00021777  0.26081727  0.49851884     1.25400
Ni500      Ni  0.99963328  0.23375083  0.49893401     1.25400
C501        C  0.01959834  0.24725819  0.51991780     0.88800
C502        C  0.98019240  0.24728990  0.47762117     0.88700
C503        C  0.97899582  0.24806620  0.51843999     0.88800
C504        C  0.02068083  0.24650250  0.47880988     0.88900
O505        O  0.01360648  0.31657194  0.34193299    -0.73400
O506        O  0.98447761  0.33825216  0.31787875    -0.73400
O507        O  0.98317292  0.31730813  0.34068341    -0.73500
O508        O  0.01485227  0.33764408  0.31921089    -0.73500
O509        O  0.01503471  0.31913222  0.30197763    -0.73400
O510        O  0.98353501  0.29872538  0.32353447    -0.73400
O511        O  0.98468252  0.31950688  0.30090856    -0.73400
O512        O  0.01405644  0.29826239  0.32449674    -0.73500
Ni513      Ni  0.99901701  0.32811273  0.33055721     1.25400
Ni514      Ni  0.99933651  0.30824195  0.31214532     1.25400
C515        C  0.01852132  0.30376685  0.33714732     0.88800
C516        C  0.98000044  0.33250002  0.30530893     0.88700
C517        C  0.97828818  0.30458478  0.33573352     0.88800
C518        C  0.01988879  0.33188843  0.30688869     0.88900
O519        O  0.81959974  0.14938364  0.48098139    -0.73400
O520        O  0.84147532  0.16931839  0.51271982    -0.73400
O521        O  0.81866934  0.14863323  0.51148680    -0.73500
O522        O  0.84236119  0.17031849  0.48202745    -0.73500
O523        O  0.82494414  0.18857368  0.48155561    -0.73400
O524        O  0.80223770  0.16778508  0.51196213    -0.73400
O525        O  0.82508947  0.18851351  0.51198848    -0.73400
O526        O  0.80238776  0.16784145  0.48123205    -0.73500
Ni527      Ni  0.83114483  0.15874265  0.49679826     1.25400
Ni528      Ni  0.81304377  0.17881963  0.49671270     1.25400
C529        C  0.80728696  0.15518029  0.47607982     0.88800
C530        C  0.83713629  0.18239945  0.51721085     0.88700
C531        C  0.80647663  0.15465480  0.51645440     0.88800
C532        C  0.83753884  0.18311089  0.47707027     0.88900
O533        O  0.19415709  0.17395572  0.48814852    -0.73400
O534        O  0.17151342  0.19466151  0.51853672    -0.73400
O535        O  0.19370218  0.17367040  0.51870570    -0.73500
O536        O  0.17200004  0.19481864  0.48774128    -0.73500
O537        O  0.15468427  0.17646207  0.48733423    -0.73400
O538        O  0.17647082  0.15523084  0.51841152    -0.73400
O539        O  0.15405490  0.17643903  0.51800947    -0.73400
O540        O  0.17716322  0.15528848  0.48785303    -0.73500
Ni541      Ni  0.18342160  0.18494012  0.50331342     1.25400
Ni542      Ni  0.16494467  0.16519690  0.50289387     1.25400
C543        C  0.18952780  0.16116833  0.48315420     0.88800
C544        C  0.15905782  0.18903053  0.52322071     0.88700
C545        C  0.18882112  0.16085805  0.52343609     0.88800
C546        C  0.15983446  0.18909149  0.48238462     0.88900
O547        O  0.84760759  0.48328959  0.17513119    -0.73400
O548        O  0.82440179  0.51313921  0.15329110    -0.73400
O549        O  0.84679544  0.51394933  0.17457515    -0.73500
O550        O  0.82542927  0.48250103  0.15360101    -0.73500
O551        O  0.80775918  0.48240613  0.17160938    -0.73400
O552        O  0.82957310  0.51334286  0.19301013    -0.73400
O553        O  0.80747061  0.51303684  0.17201983    -0.73400
O554        O  0.82976144  0.48275166  0.19295977    -0.73500
Ni555      Ni  0.83669795  0.49822202  0.16347506     1.25400
Ni556      Ni  0.81803834  0.49786256  0.18303071     1.25400
C557        C  0.84242360  0.47820437  0.18772368     0.88800
C558        C  0.81208244  0.51796032  0.15922338     0.88700
C559        C  0.84177049  0.51870330  0.18731975     0.88800
C560        C  0.81299794  0.47744480  0.15900001     0.88900
O561        O  0.15489448  0.50710692  0.17381090    -0.73400
O562        O  0.17680572  0.47750569  0.15077782    -0.73400
O563        O  0.15484357  0.47659164  0.17247252    -0.73500
O564        O  0.17696885  0.50798010  0.15226387    -0.73500
O565        O  0.19455399  0.50713305  0.17037114    -0.73400
O566        O  0.17270465  0.47570297  0.19030812    -0.73400
O567        O  0.19442603  0.47665246  0.16884482    -0.73400
O568        O  0.17257681  0.50624078  0.19180876    -0.73500
Ni569      Ni  0.16523736  0.49233349  0.16167606     1.25400
Ni570      Ni  0.18417852  0.49141368  0.18097704     1.25400
C571        C  0.16003106  0.51135526  0.18670252     0.88800
C572        C  0.18931516  0.47238439  0.15595455     0.88700
C573        C  0.16014229  0.47113536  0.18483770     0.88800
C574        C  0.18954217  0.51247004  0.15787431     0.88900
O575        O  0.68096967  0.34372430  0.98253335    -0.73400
O576        O  0.65878727  0.32006263  0.01157019    -0.73400
O577        O  0.68060877  0.34219302  0.01309635    -0.73500
O578        O  0.65924357  0.32160802  0.98109724    -0.73500
O579        O  0.67737284  0.30406801  0.98043772    -0.73400
O580        O  0.69825289  0.32416188  0.01257317    -0.73400
O581        O  0.67676289  0.30236528  0.01084346    -0.73400
O582        O  0.69879848  0.32586455  0.98210602    -0.73500
Ni583      Ni  0.66924261  0.33256222  0.99711244     1.25400
Ni584      Ni  0.68841800  0.31351638  0.99647557     1.25400
C585        C  0.69367473  0.33869512  0.97774417     0.88800
C586        C  0.66398861  0.30713277  0.01563279     0.88700
C587        C  0.69313366  0.33664781  0.01785205     0.88800
C588        C  0.66472059  0.30925666  0.97575836     0.88900
O589        O  0.82760150  0.48816270  0.80456337    -0.73400
O590        O  0.80700944  0.51769915  0.82837205    -0.73400
O591        O  0.82719577  0.51882423  0.80533799    -0.73500
O592        O  0.80751109  0.48723039  0.82749630    -0.73500
O593        O  0.82632951  0.48700490  0.84431270    -0.73400
O594        O  0.84619791  0.51856695  0.82194019    -0.73400
O595        O  0.82582882  0.51763179  0.84519214    -0.73400
O596        O  0.84666739  0.48790054  0.82110188    -0.73500
Ni597      Ni  0.81669022  0.50300401  0.81584522     1.25400
Ni598      Ni  0.83695928  0.50278585  0.83374022     1.25400
C599        C  0.84045889  0.48316152  0.80886060     0.88800
C600        C  0.81282270  0.52228013  0.84082734     0.88700
C601        C  0.83999214  0.52379836  0.80990701     0.88800
C602        C  0.81357266  0.48204062  0.83960776     0.88900
O603        O  0.97880794  0.32620695  0.64582644    -0.73400
O604        O  0.00888456  0.34866506  0.66777162    -0.73400
O605        O  0.00918771  0.32585831  0.64686887    -0.73500
O606        O  0.97832796  0.34900705  0.66673503    -0.73500
O607        O  0.97794896  0.33216382  0.68560247    -0.73400
O608        O  0.00816735  0.30878885  0.66551837    -0.73400
O609        O  0.00834215  0.33131555  0.68617023    -0.73400
O610        O  0.97776057  0.30958043  0.66486640    -0.73500
Ni611      Ni  0.99383004  0.33808185  0.65612862     1.25400
Ni612      Ni  0.99301350  0.31986918  0.67618664     1.25400
C613        C  0.97349745  0.31407645  0.65175577     0.88800
C614        C  0.01354118  0.34362657  0.68057499     0.88700
C615        C  0.01355202  0.31338965  0.65288086     0.88800
C616        C  0.97321928  0.34445011  0.67953387     0.88900
O617        O  0.16985020  0.51266146  0.79955967    -0.73400
O618        O  0.19374541  0.48263724  0.81969083    -0.73400
O619        O  0.17095845  0.48218397  0.79932445    -0.73500
O620        O  0.19285470  0.51317508  0.81993634    -0.73500
O621        O  0.17642307  0.51223905  0.83907784    -0.73400
O622        O  0.15379052  0.48170736  0.81781941    -0.73400
O623        O  0.17686382  0.48171873  0.83843857    -0.73400
O624        O  0.15332219  0.51230516  0.81863822    -0.73500
Ni625      Ni  0.18243091  0.49770160  0.80895950     1.25400
Ni626      Ni  0.16448648  0.49696153  0.82917849     1.25400
C627        C  0.15759599  0.51730217  0.80571474     0.88800
C628        C  0.18930440  0.47738276  0.83246695     0.88700
C629        C  0.15868760  0.47704264  0.80496930     0.88800
C630        C  0.18848319  0.51753472  0.83305620     0.88900
O631        O  0.34947600  0.32426394  0.97608539    -0.73400
O632        O  0.32864267  0.34440841  0.00858114    -0.73400
O633        O  0.35033465  0.32257194  0.00671869    -0.73500
O634        O  0.32780747  0.34616997  0.97800884    -0.73500
O635        O  0.31015023  0.32813797  0.97737000    -0.73400
O636        O  0.33242732  0.30480024  0.00610277    -0.73400
O637        O  0.31091650  0.32645928  0.00792037    -0.73400
O638        O  0.33152270  0.30653508  0.97565533    -0.73500
Ni639      Ni  0.33972759  0.33500944  0.99237005     1.25400
Ni640      Ni  0.32062773  0.31587475  0.99176425     1.25400
C641        C  0.34391583  0.31200667  0.97063541     0.88800
C642        C  0.31623485  0.33876192  0.01344378     0.88700
C643        C  0.34510444  0.30973762  0.01100077     0.88800
C644        C  0.31526731  0.34096372  0.97299480     0.88900
O645        O  0.51935602  0.15304357  0.81798730    -0.73400
O646        O  0.48962824  0.17603671  0.83976875    -0.73400
O647        O  0.48897937  0.15381815  0.81820205    -0.73500
O648        O  0.52015912  0.17525962  0.83956379    -0.73500
O649        O  0.52042130  0.19283117  0.82138705    -0.73400
O650        O  0.48921242  0.17149002  0.80011333    -0.73400
O651        O  0.48989703  0.19348738  0.82146278    -0.73400
O652        O  0.51974477  0.17073300  0.79991906    -0.73500
Ni653      Ni  0.50452806  0.16392070  0.82954793     1.25400
Ni654      Ni  0.50484937  0.18276335  0.81008904     1.25400
C655        C  0.52421192  0.15799238  0.80523979     0.88800
C656        C  0.48490572  0.18856399  0.83415099     0.88700
C657        C  0.48411876  0.15904105  0.80555920     0.88800
C658        C  0.52528685  0.18766964  0.83405924     0.88900
O659        O  0.51547847  0.16913312  0.18799534    -0.73400
O660        O  0.48617807  0.19125326  0.16526644    -0.73400
O661        O  0.48499100  0.16988077  0.18724558    -0.73500
O662        O  0.51665441  0.19040503  0.16588549    -0.73500
O663        O  0.51649737  0.17228873  0.14823515    -0.73400
O664        O  0.48494806  0.15171557  0.16964738    -0.73400
O665        O  0.48615080  0.17329030  0.14745542    -0.73400
O666        O  0.51531308  0.15078201  0.17059181    -0.73500
Ni667      Ni  0.50083522  0.18080708  0.17721657     1.25400
Ni668      Ni  0.50073505  0.16135832  0.15834679     1.25400
C669        C  0.52001570  0.15622862  0.18320878     0.88800
C670        C  0.48150756  0.18606352  0.15256989     0.88700
C671        C  0.47991558  0.15731693  0.18204052     0.88800
C672        C  0.52155132  0.18486501  0.15340049     0.88900
O673        O  0.34360898  0.98119813  0.67607621    -0.73400
O674        O  0.32232027  0.01290353  0.65570155    -0.73400
O675        O  0.34456440  0.01174412  0.67708406    -0.73500
O676        O  0.32120761  0.98248051  0.65480955    -0.73500
O677        O  0.30406492  0.98230301  0.67334104    -0.73400
O678        O  0.32705819  0.01168548  0.69525531    -0.73400
O679        O  0.30495696  0.01293303  0.67402877    -0.73400
O680        O  0.32622999  0.98105872  0.69438532    -0.73500
Ni681      Ni  0.33355863  0.99707770  0.66526382     1.25400
Ni682      Ni  0.31496603  0.99700903  0.68490288     1.25400
C683        C  0.33851057  0.97602565  0.68862950     0.88800
C684        C  0.31001908  0.01793607  0.66138372     0.88700
C685        C  0.33964948  0.01640939  0.68993106     0.88800
C686        C  0.30871664  0.97772704  0.66040520     0.88900
O687        O  0.48275856  0.84227881  0.82187235    -0.73400
O688        O  0.51148387  0.81977548  0.84567141    -0.73400
O689        O  0.51316953  0.84076941  0.82301332    -0.73500
O690        O  0.48095855  0.82123566  0.84469384    -0.73500
O691        O  0.48052648  0.80297109  0.82721221    -0.73400
O692        O  0.51309541  0.82194652  0.80612077    -0.73400
O693        O  0.51085953  0.80118811  0.82853281    -0.73400
O694        O  0.48273649  0.82366924  0.80474421    -0.73500
Ni695      Ni  0.49708699  0.83169690  0.83445536     1.25400
Ni696      Ni  0.49678516  0.81180771  0.81606092     1.25400
C697        C  0.47826898  0.83669695  0.80922735     0.88800
C698        C  0.51577042  0.80670150  0.84099780     0.88700
C699        C  0.51833789  0.83457249  0.81095335     0.88800
C700        C  0.47558258  0.80877112  0.83955171     0.88900
O701        O  0.34123688  0.67187563  0.01365351    -0.73400
O702        O  0.31918748  0.65097149  0.98253750    -0.73400
O703        O  0.34086877  0.67298090  0.98314468    -0.73500
O704        O  0.31963297  0.64984409  0.01303997    -0.73500
O705        O  0.30174083  0.66763280  0.01389671    -0.73400
O706        O  0.32283870  0.69063150  0.98389303    -0.73400
O707        O  0.30137960  0.66884088  0.98332568    -0.73400
O708        O  0.32316192  0.68947617  0.01446716    -0.73500
Ni709      Ni  0.33088310  0.66077220  0.99806133     1.25400
Ni710      Ni  0.31165003  0.67976953  0.99893586     1.25400
C711        C  0.33584900  0.68424404  0.01900274     0.88800
C712        C  0.30658697  0.65643028  0.97794419     0.88700
C713        C  0.33541611  0.68568774  0.97875568     0.88800
C714        C  0.30708583  0.65486452  0.01819775     0.88900
O715        O  0.47778826  0.82303272  0.19617667    -0.73400
O716        O  0.50683743  0.79840426  0.17544652    -0.73400
O717        O  0.50823979  0.82130897  0.19577281    -0.73500
O718        O  0.47637931  0.80007263  0.17568224    -0.73500
O719        O  0.47732289  0.81672819  0.15665822    -0.73400
O720        O  0.50880804  0.83823612  0.17697475    -0.73400
O721        O  0.50758533  0.81514358  0.15650070    -0.73400
O722        O  0.47833167  0.83976210  0.17722364    -0.73500
Ni723      Ni  0.49226790  0.81011857  0.18645119     1.25400
Ni724      Ni  0.49303096  0.82809031  0.16617871     1.25400
C725        C  0.47336528  0.83548575  0.19019165     0.88800
C726        C  0.51184029  0.80261822  0.16250001     0.88700
C727        C  0.51365369  0.83331357  0.18972708     0.88800
C728        C  0.47194754  0.80468617  0.16266200     0.88900
O729        O  0.30609950  0.01844094  0.32799062    -0.73400
O730        O  0.32625134  0.98763105  0.30520233    -0.73400
O731        O  0.30699809  0.98792928  0.32896362    -0.73500
O732        O  0.32536259  0.01819926  0.30411969    -0.73500
O733        O  0.34503363  0.01924659  0.31988391    -0.73400
O734        O  0.32648493  0.98878548  0.34496992    -0.73400
O735        O  0.34590900  0.98875943  0.32098498    -0.73400
O736        O  0.32549195  0.01946015  0.34409659    -0.73500
Ni737      Ni  0.31550104  0.00303739  0.31602310     1.25400
Ni738      Ni  0.33643466  0.00414674  0.33308558     1.25400
C739        C  0.31230344  0.02377536  0.33996212     0.88800
C740        C  0.33942454  0.98323841  0.30923290     0.88700
C741        C  0.31364327  0.98337179  0.34100626     0.88800
C742        C  0.33838401  0.02338658  0.30765212     0.88900
O743        O  0.15836397  0.82073006  0.51211902    -0.73400
O744        O  0.18083995  0.84384828  0.48286678    -0.73400
O745        O  0.15872925  0.82214367  0.48156932    -0.73500
O746        O  0.18052417  0.84232821  0.51337490    -0.73500
O747        O  0.19783020  0.82395637  0.51290587    -0.73400
O748        O  0.17658438  0.80432066  0.48080405    -0.73400
O749        O  0.19841586  0.82574565  0.48241295    -0.73400
O750        O  0.17596519  0.80265827  0.51141838    -0.73500
Ni751      Ni  0.16896167  0.83291903  0.49750170     1.25400
Ni752      Ni  0.18779903  0.81353354  0.49684989     1.25400
C753        C  0.16343722  0.80783606  0.51646189     0.88800
C754        C  0.19349812  0.83868832  0.47808880     0.88700
C755        C  0.16405962  0.80979185  0.47610893     0.88800
C756        C  0.19287679  0.83650051  0.51819303     0.88900
O757        O  0.02115803  0.69410554  0.32107932    -0.73400
O758        O  0.99045399  0.67234561  0.29973093    -0.73400
O759        O  0.99070466  0.69514139  0.32026297    -0.73500
O760        O  0.02075322  0.67118494  0.30044979    -0.73500
O761        O  0.01990684  0.65439457  0.31935364    -0.73400
O762        O  0.98968736  0.67837265  0.33917877    -0.73400
O763        O  0.98946125  0.65535009  0.31843984    -0.73400
O764        O  0.02006772  0.67725366  0.33991366    -0.73500
Ni765      Ni  0.00581326  0.68380568  0.30972711     1.25400
Ni766      Ni  0.00471999  0.66573355  0.32989931     1.25400
C767        C  0.02553309  0.68934635  0.33407009     0.88800
C768        C  0.98514447  0.66011862  0.30542494     0.88700
C769        C  0.98543704  0.69082965  0.33305963     0.88800
C770        C  0.02507772  0.65873735  0.30651846     0.88900
O771        O  0.81148281  0.82593083  0.47669113    -0.73400
O772        O  0.83473291  0.80670340  0.50758282    -0.73400
O773        O  0.81105980  0.82618048  0.50715569    -0.73500
O774        O  0.83515963  0.80659120  0.47701777    -0.73500
O775        O  0.85145783  0.82586428  0.47763655    -0.73400
O776        O  0.82656335  0.84610746  0.50686900    -0.73400
O777        O  0.85029563  0.82657198  0.50825536    -0.73400
O778        O  0.82755634  0.84538794  0.47622938    -0.73500
Ni779      Ni  0.82256075  0.81566175  0.49210673     1.25400
Ni780      Ni  0.83956126  0.83669586  0.49223655     1.25400
C781        C  0.81551710  0.83885157  0.47151613     0.88800
C782        C  0.84634225  0.81342689  0.51298734     0.88700
C783        C  0.81468496  0.83944553  0.51176809     0.88800
C784        C  0.84738795  0.81288846  0.47257069     0.88900
O785        O  0.67499140  0.00981796  0.33938195    -0.73400
O786        O  0.65199987  0.97950712  0.31851816    -0.73400
O787        O  0.67390753  0.97934032  0.34029501    -0.73500
O788        O  0.65312594  0.00996642  0.31741993    -0.73500
O789        O  0.67112550  0.00887672  0.29976056    -0.73400
O790        O  0.69141069  0.97806080  0.32214428    -0.73400
O791        O  0.66973254  0.97844908  0.30058300    -0.73400
O792        O  0.69274889  0.00852389  0.32149169    -0.73500
Ni793      Ni  0.66285721  0.99471882  0.32956236     1.25400
Ni794      Ni  0.68187471  0.99344380  0.31037076     1.25400
C795        C  0.68780192  0.01387695  0.33403607     0.88800
C796        C  0.65700432  0.97420606  0.30598595     0.88700
C797        C  0.68618512  0.97381009  0.33496167     0.88800
C798        C  0.65863514  0.01422118  0.30467899     0.88900
O799        O  0.01532593  0.67302959  0.64849571    -0.73400
O800        O  0.98404263  0.65361016  0.67173910    -0.73400
O801        O  0.98482491  0.67483264  0.64910311    -0.73500
O802        O  0.01449738  0.65174044  0.67112437    -0.73500
O803        O  0.01602378  0.67045204  0.68807782    -0.73400
O804        O  0.98619587  0.69297173  0.66667882    -0.73400
O805        O  0.98571036  0.67204488  0.68897056    -0.73400
O806        O  0.01648656  0.69140502  0.66583620    -0.73500
Ni807      Ni  0.99961847  0.66261473  0.65946315     1.25400
Ni808      Ni  0.00115058  0.68233696  0.67798376     1.25400
C809        C  0.02086029  0.68556688  0.65332275     0.88800
C810        C  0.97991882  0.65961144  0.68430788     0.88700
C811        C  0.98078695  0.68779139  0.65428238     0.88800
C812        C  0.02002112  0.65736911  0.68332104     0.88900
O813        O  0.69345895  0.00516761  0.66756732    -0.73400
O814        O  0.67271411  0.97444780  0.68964328    -0.73400
O815        O  0.69327570  0.97461766  0.66697835    -0.73500
O816        O  0.67282112  0.00499414  0.69015643    -0.73500
O817        O  0.65417338  0.00536488  0.67316034    -0.73400
O818        O  0.67480620  0.97498195  0.64977817    -0.73400
O819        O  0.65403102  0.97475281  0.67267653    -0.73400
O820        O  0.67511605  0.00553852  0.65022812    -0.73500
Ni821      Ni  0.68371281  0.98979547  0.67917042     1.25400
Ni822      Ni  0.66384438  0.99018865  0.66083477     1.25400
C823        C  0.68789220  0.01022242  0.65518081     0.88800
C824        C  0.65990057  0.96968698  0.68495516     0.88700
C825        C  0.68752885  0.96994344  0.65450708     0.88800
C826        C  0.66001740  0.00998738  0.68562614     0.88900
O827        O  0.64591249  0.66688859  0.98701122    -0.73400
O828        O  0.66824978  0.64520547  0.01744895    -0.73400
O829        O  0.64595339  0.66652595  0.01774053    -0.73500
O830        O  0.66833604  0.64556409  0.98675976    -0.73500
O831        O  0.68539891  0.66415927  0.98693348    -0.73400
O832        O  0.66333921  0.68480747  0.01789415    -0.73400
O833        O  0.68550029  0.66361685  0.01761209    -0.73400
O834        O  0.66328672  0.68518466  0.98725340    -0.73500
Ni835      Ni  0.65647731  0.65537781  0.00222982     1.25400
Ni836      Ni  0.67498972  0.67506956  0.00244852     1.25400
C837        C  0.65091953  0.67964429  0.98219812     0.88800
C838        C  0.68061184  0.65083437  0.02244483     0.88700
C839        C  0.65093680  0.67920062  0.02278308     0.88800
C840        C  0.68060114  0.65148318  0.98181232     0.88900
C841        C  0.05865801  0.27838160  0.61791050     0.30800
C842        C  0.04839276  0.29029083  0.61567843    -0.35500
C843        C  0.03965868  0.29432822  0.62831333     0.16800
C844        C  0.04077802  0.28695263  0.64207376     0.22600
C845        C  0.05099221  0.27506826  0.64428972    -0.33600
C846        C  0.05986651  0.27121706  0.63176661     0.16700
O847        O  0.06874011  0.27349478  0.60806639    -0.25700
C848        C  0.07649090  0.26313532  0.61576485     0.06500
C849        C  0.07147266  0.26127387  0.63055982    -0.30500
O850        O  0.03175836  0.29268294  0.65242358    -0.22400
C851        C  0.02486355  0.30398741  0.64529072    -0.02400
C852        C  0.02931629  0.30559092  0.63025363    -0.16800
H853        H  0.04760457  0.29627932  0.60499954     0.21200
H854        H  0.05223003  0.26949928  0.65515156     0.19600
H855        H  0.07616513  0.25411424  0.63934028     0.19500
H856        H  0.02547536  0.31380989  0.62200271     0.15400
C857        C  0.11925788  0.22201865  0.56592594     0.30800
C858        C  0.11837185  0.21030524  0.55518755    -0.35500
C859        C  0.13201084  0.20621700  0.54818879     0.16800
C860        C  0.14552435  0.21331768  0.55139608     0.22600
C861        C  0.14644845  0.22486211  0.56223778    -0.33600
C862        C  0.13287560  0.22882048  0.56931459     0.16700
O863        O  0.10805326  0.22732345  0.57425233    -0.25700
C864        C  0.11466107  0.23756313  0.58311094     0.06500
C865        C  0.13007481  0.23893522  0.58053145    -0.30500
O866        O  0.15678004  0.20809483  0.54318318    -0.22400
C867        C  0.15046820  0.19737041  0.53471437    -0.02400
C868        C  0.13509767  0.19559984  0.53740270    -0.16800
H869        H  0.10782726  0.20470659  0.55255794     0.21200
H870        H  0.15702435  0.23034260  0.56499919     0.19600
H871        H  0.13812361  0.24603699  0.58642552     0.19500
H872        H  0.12729429  0.18794453  0.53188674     0.15400
C873        C  0.06609303  0.24168506  0.56832063     0.30800
C874        C  0.05664944  0.23238457  0.55949432    -0.35500
C875        C  0.04696963  0.23991677  0.54934102     0.16800
C876        C  0.04657443  0.25548793  0.54799663     0.22600
C877        C  0.05595123  0.26477758  0.55686445    -0.33600
C878        C  0.06565322  0.25726706  0.56696507     0.16700
O879        O  0.07596446  0.23709483  0.57858353    -0.25700
C880        C  0.08185429  0.24993746  0.58383337     0.06500
C881        C  0.07594165  0.26283160  0.57700910    -0.30500
O882        O  0.03686328  0.26011942  0.53762358    -0.22400
C883        C  0.03094186  0.24735541  0.53219502    -0.02400
C884        C  0.03677274  0.23441181  0.53911214    -0.16800
H885        H  0.05687159  0.22021857  0.56042958     0.21200
H886        H  0.05574876  0.27697065  0.55590725     0.19600
H887        H  0.07874045  0.27454308  0.57923177     0.19500
H888        H  0.03403318  0.22273256  0.53682119     0.15400
C889        C  0.04554074  0.27859089  0.35144558     0.30800
C890        C  0.05632078  0.26702848  0.35057220    -0.35500
C891        C  0.06391851  0.26359640  0.36405473     0.16800
C892        C  0.06101971  0.27083267  0.37761192     0.22600
C893        C  0.05016001  0.28244442  0.37849464    -0.33600
C894        C  0.04270431  0.28608801  0.36487918     0.16700
O895        O  0.03746612  0.28383431  0.34006217    -0.25700
C896        C  0.02942863  0.29499527  0.34615525     0.06500
C897        C  0.03222157  0.29696384  0.36157809    -0.30500
O898        O  0.07018200  0.26632871  0.38857818    -0.22400
C899        C  0.07907908  0.25617891  0.38184644    -0.02400
C900        C  0.07563388  0.25404420  0.36662729    -0.16800
H901        H  0.05890125  0.26137423  0.34000085     0.21200
H902        H  0.04800535  0.28850793  0.38893079     0.19600
H903        H  0.02718770  0.30511564  0.36921745     0.19500
H904        H  0.08140599  0.24695945  0.35846192     0.15400
C905        C  0.13263946  0.22564203  0.43308539     0.30800
C906        C  0.14671603  0.22300027  0.43985224    -0.35500
C907        C  0.14688030  0.21251969  0.45177529     0.16800
C908        C  0.13413066  0.20492074  0.45656015     0.22600
C909        C  0.11999782  0.20765995  0.44983923    -0.33600
C910        C  0.11977914  0.21838886  0.43806837     0.16700
O911        O  0.13008171  0.23447032  0.42133757    -0.25700
C912        C  0.11532639  0.23314726  0.41885154     0.06500
C913        C  0.10830054  0.22327805  0.42895897    -0.30500
O914        O  0.13697317  0.19544833  0.46779824    -0.22400
C915        C  0.15168366  0.19720564  0.47035066    -0.02400
C916        C  0.15841866  0.20767788  0.46072181    -0.16800
H917        H  0.15685268  0.22865823  0.43602013     0.21200
H918        H  0.10990457  0.20181526  0.45349721     0.19600
H919        H  0.09673378  0.21941759  0.42900431     0.19500
H920        H  0.17012240  0.21116982  0.46036589     0.15400
C921        C  0.04925763  0.25317332  0.45215138     0.30800
C922        C  0.06030318  0.26156594  0.44442542    -0.35500
C923        C  0.06814876  0.25383147  0.43297809     0.16800
C924        C  0.06521125  0.23889837  0.42929744     0.22600
C925        C  0.05420304  0.23051708  0.43703945    -0.33600
C926        C  0.04649528  0.23819884  0.44858476     0.16700
O927        O  0.04059235  0.25811164  0.46326381    -0.25700
C928        C  0.03230354  0.24608790  0.46695068     0.06500
C929        C  0.03550773  0.23337800  0.45821203    -0.30500
O930        O  0.07392629  0.23385742  0.41829614    -0.22400
C931        C  0.08259520  0.24568276  0.41501363    -0.02400
C932        C  0.07954549  0.25844800  0.42368581    -0.16800
H933        H  0.06267723  0.27326788  0.44720872     0.21200
H934        H  0.05189860  0.21878376  0.43433277     0.19600
H935        H  0.03034642  0.22227574  0.45875949     0.19500
H936        H  0.08500333  0.26940570  0.42324370     0.15400
C937        C  0.93203984  0.27672392  0.61438527     0.30800
C938        C  0.94250221  0.28857186  0.61240835    -0.35500
C939        C  0.94952945  0.29393007  0.62568739     0.16800
C940        C  0.94661240  0.28782544  0.63979889     0.22600
C941        C  0.93625047  0.27606832  0.64174516    -0.33600
C942        C  0.92912653  0.27091635  0.62860349     0.16700
O943        O  0.92358521  0.27034335  0.60378782    -0.25700
C944        C  0.91515696  0.26044184  0.61144658     0.06500
C945        C  0.91820523  0.26035290  0.62688823    -0.30500
O946        O  0.95446587  0.29426503  0.65066335    -0.22400
C947        C  0.96245980  0.30480687  0.64356173    -0.02400
C948        C  0.95986301  0.30520133  0.62797912    -0.16800
H949        H  0.94481391  0.29341212  0.60137991     0.21200
H950        H  0.93376256  0.27138426  0.65280508     0.19600
H951        H  0.91290984  0.25364941  0.63567594     0.19500
H952        H  0.96507553  0.31245535  0.61958883     0.15400
C953        C  0.87365593  0.22178199  0.55734843     0.30800
C954        C  0.86474273  0.22274889  0.54424595    -0.35500
C955        C  0.85844502  0.20911345  0.53909915     0.16800
C956        C  0.86110585  0.19535676  0.54605676     0.22600
C957        C  0.87000151  0.19438316  0.55918881    -0.33600
C958        C  0.87597439  0.20809311  0.56457244     0.16700
O959        O  0.87937962  0.23331617  0.56492162    -0.25700
C960        C  0.88536957  0.22693842  0.57717129     0.06500
C961        C  0.88354909  0.21130498  0.57760553    -0.30500
O962        O  0.85399848  0.18405900  0.53932806    -0.22400
C963        C  0.84643909  0.19075460  0.52814244    -0.02400
C964        C  0.84874248  0.20631416  0.52747796    -0.16800
H965        H  0.86239093  0.23347955  0.53878992     0.21200
H966        H  0.87171708  0.18376517  0.56508579     0.19600
H967        H  0.88657959  0.20359571  0.58665123     0.19500
H968        H  0.84409209  0.21433617  0.51945240     0.15400
C969        C  0.93072901  0.25401032  0.56464312     0.30800
C970        C  0.94032170  0.26332857  0.55604136    -0.35500
C971        C  0.95019506  0.25581090  0.54610706     0.16800
C972        C  0.95061930  0.24022492  0.54481720     0.22600
C973        C  0.94103077  0.23094941  0.55334529    -0.33600
C974        C  0.93113484  0.23843541  0.56316577     0.16700
O975        O  0.92061700  0.25852318  0.57466900    -0.25700
C976        C  0.91448828  0.24563653  0.57951068     0.06500
C977        C  0.92056276  0.23280495  0.57275810    -0.30500
O978        O  0.96074325  0.23553213  0.53496966    -0.22400
C979        C  0.96690809  0.24824611  0.52980669    -0.02400
C980        C  0.96078916  0.26125107  0.53630108    -0.16800
H981        H  0.94010458  0.27555068  0.55702377     0.21200
H982        H  0.94126122  0.21872635  0.55237539     0.19600
H983        H  0.91771119  0.22105632  0.57477828     0.19500
H984        H  0.96376048  0.27295104  0.53415156     0.15400
C985        C  0.93240843  0.26650550  0.36626782     0.30800
C986        C  0.93993726  0.26755676  0.35233756    -0.35500
C987        C  0.95018796  0.27954413  0.35090456     0.16800
C988        C  0.95277798  0.28989853  0.36233538     0.22600
C989        C  0.94527935  0.28880050  0.37632834    -0.33600
C990        C  0.93512666  0.27667475  0.37782906     0.16700
O991        O  0.92180715  0.25664873  0.36971194    -0.25700
C992        C  0.91785554  0.26028669  0.38378963     0.06500
C993        C  0.92570749  0.27273767  0.38941390    -0.30500
O994        O  0.96278984  0.30026519  0.35845121    -0.22400
C995        C  0.96669614  0.29641719  0.34439224    -0.02400
C996        C  0.95921459  0.28361624  0.33912356    -0.16800
H997        H  0.93782620  0.25966312  0.34319135     0.21200
H998        H  0.94716227  0.29687335  0.38536615     0.19600
H999        H  0.92398471  0.27871203  0.39997290     0.19500
H1000       H  0.96034756  0.27807754  0.32823573     0.15400
C1001       C  0.87812084  0.21738077  0.43581224     0.30800
C1002       C  0.87838604  0.20421069  0.44480089    -0.35500
C1003       C  0.86502341  0.20086175  0.45272884     0.16800
C1004       C  0.85237647  0.20996079  0.45196892     0.22600
C1005       C  0.85211245  0.22307920  0.44304209    -0.33600
C1006       C  0.86536848  0.22632396  0.43504823     0.16700
O1007       O  0.88887824  0.22208583  0.42654584    -0.25700
C1008       C  0.88288691  0.23418560  0.41981656     0.06500
C1009       C  0.86829576  0.23729733  0.42468419    -0.30500
O1010       O  0.84112323  0.20477471  0.46020863    -0.22400
C1011       C  0.84651362  0.19210066  0.46630592    -0.02400
C1012       C  0.86134215  0.18904940  0.46204089    -0.16800
H1013       H  0.88818071  0.19689936  0.44528634     0.21200
H1014       H  0.84213917  0.23010618  0.44214316     0.19600
H1015       H  0.86064585  0.24590785  0.42051246     0.19500
H1016       H  0.86840848  0.17965028  0.46547034     0.15400
C1017       C  0.93247654  0.25411748  0.43082440     0.30800
C1018       C  0.94236018  0.26305431  0.43945047    -0.35500
C1019       C  0.95228829  0.25519944  0.44901938     0.16800
C1020       C  0.95256713  0.23959750  0.45000101     0.22600
C1021       C  0.94272333  0.23062780  0.44127890    -0.33600
C1022       C  0.93268367  0.23850088  0.43177733     0.16700
O1023       O  0.92218083  0.25915890  0.42128740    -0.25700
C1024       C  0.91564503  0.24663425  0.41611721     0.06500
C1025       C  0.92168724  0.23341209  0.42219400    -0.30500
O1026       O  0.96252404  0.23468544  0.46002169    -0.22400
C1027       C  0.96868078  0.24732134  0.46552699    -0.02400
C1028       C  0.96276514  0.26040800  0.45904237    -0.16800
H1029       H  0.94220174  0.27529976  0.43886494     0.21200
H1030       H  0.94274863  0.21838806  0.44200401     0.19600
H1031       H  0.91859672  0.22181270  0.41972956     0.19500
H1032       H  0.96558561  0.27207037  0.46156182     0.15400
C1033       C  0.05127997  0.63177484  0.29402213     0.30800
C1034       C  0.06143136  0.61963324  0.29529364    -0.35500
C1035       C  0.06904046  0.61554560  0.28196234     0.16800
C1036       C  0.06674583  0.62284613  0.26830965     0.22600
C1037       C  0.05657085  0.63493884  0.26703371    -0.33600
C1038       C  0.04909850  0.63912317  0.28038154     0.16700
O1039       O  0.04319230  0.63770342  0.30508296    -0.25700
C1040       C  0.03588825  0.64908597  0.29844558     0.06500
C1041       C  0.03913707  0.65051703  0.28309921    -0.30500
O1042       O  0.07579034  0.61788407  0.25755143    -0.22400
C1043       C  0.08385503  0.60715393  0.26433822    -0.02400
C1044       C  0.08024854  0.60526596  0.27954939    -0.16800
H1045       H  0.06350776  0.61400399  0.30599247     0.21200
H1046       H  0.05491992  0.64094636  0.25646674     0.19600
H1047       H  0.03468868  0.65868076  0.27510285     0.19500
H1048       H  0.08571202  0.59804146  0.28780562     0.15400
C1049       C  0.14603141  0.53671795  0.21378880     0.30800
C1050       C  0.14669552  0.54582232  0.22675922    -0.35500
C1051       C  0.13404234  0.55488633  0.22955491     0.16800
C1052       C  0.12141165  0.55489433  0.22039144     0.22600
C1053       C  0.12070963  0.54569002  0.20738497    -0.33600
C1054       C  0.13352886  0.53674934  0.20444462     0.16700
O1055       O  0.15689391  0.52783931  0.20879576    -0.25700
C1056       C  0.15139384  0.52213193  0.19599827     0.06500
C1057       C  0.13687834  0.52725570  0.19269839    -0.30500
O1058       O  0.11128430  0.56500761  0.22475703    -0.22400
C1059       C  0.11763322  0.57153346  0.23679587    -0.02400
C1060       C  0.13176068  0.56568689  0.24024876    -0.16800
H1061       H  0.15659615  0.54615484  0.23393828     0.21200
H1062       H  0.11106926  0.54583714  0.19985293     0.19600
H1063       H  0.12987905  0.52443898  0.18304614     0.19500
H1064       H  0.13950156  0.56936181  0.24900203     0.15400
C1065       C  0.07018162  0.55945169  0.24288651     0.30800
C1066       C  0.06106762  0.54994553  0.23405220    -0.35500
C1067       C  0.05084308  0.54084441  0.24204469     0.16800
C1068       C  0.04968281  0.54099664  0.25765401     0.22600
C1069       C  0.05876466  0.55053386  0.26649062    -0.33600
C1070       C  0.06891898  0.55971461  0.25849671     0.16700
O1071       O  0.08054782  0.56888918  0.23780835    -0.25700
C1072       C  0.08581656  0.57533705  0.25034672     0.06500
C1073       C  0.07907427  0.57007654  0.26354253    -0.30500
O1074       O  0.03938851  0.53147974  0.26273478    -0.22400
C1075       C  0.03388660  0.52520113  0.25019633    -0.02400
C1076       C  0.04057461  0.53059945  0.23700391    -0.16800
H1077       H  0.06188134  0.54966919  0.22181590     0.21200
H1078       H  0.05794936  0.55080687  0.27872584     0.19600
H1079       H  0.08149726  0.57321298  0.27513276     0.19500
H1080       H  0.03821829  0.52740067  0.22539640     0.15400
C1081       C  0.04472570  0.35797879  0.29039501     0.30800
C1082       C  0.05249598  0.37174951  0.28883779    -0.35500
C1083       C  0.06231785  0.37277492  0.27641446     0.16800
C1084       C  0.06438958  0.36102616  0.26630683     0.22600
C1085       C  0.05650000  0.34735458  0.26774915    -0.33600
C1086       C  0.04668739  0.34634015  0.28013151     0.16700
O1087       O  0.03524113  0.35438803  0.30133591    -0.25700
C1088       C  0.03109360  0.34028418  0.29799029     0.06500
C1089       C  0.03784017  0.33471248  0.28491029    -0.30500
O1090       O  0.07509893  0.36385400  0.25639085    -0.22400
C1091       C  0.07981818  0.37768919  0.25999060    -0.02400
C1092       C  0.07228318  0.38381131  0.27239120    -0.16800
H1093       H  0.05123716  0.38087855  0.29692913     0.21200
H1094       H  0.05822600  0.33800025  0.26000912     0.19600
H1095       H  0.03639863  0.32371093  0.27968480     0.19500
H1096       H  0.07469154  0.39416117  0.27846793     0.15400
C1097       C  0.14690516  0.44382048  0.21006290     0.30800
C1098       C  0.14794503  0.43363163  0.22216055    -0.35500
C1099       C  0.13451189  0.42643595  0.22629842     0.16800
C1100       C  0.12091413  0.42914682  0.21915589     0.22600
C1101       C  0.11988530  0.43932569  0.20696307    -0.33600
C1102       C  0.13340616  0.44641326  0.20267984     0.16700
O1103       O  0.15806192  0.45190410  0.20450782    -0.25700
C1104       C  0.15171488  0.45967782  0.19330246     0.06500
C1105       C  0.13640088  0.45668125  0.19153598    -0.30500
O1106       O  0.10996538  0.42050582  0.22443485    -0.22400
C1107       C  0.11670222  0.41217062  0.23502437    -0.02400
C1108       C  0.13195342  0.41537998  0.23665204    -0.16800
H1109       H  0.15853583  0.43133194  0.22782507     0.21200
H1110       H  0.10936522  0.44136441  0.20107517     0.19600
H1111       H  0.12856834  0.46171406  0.18357925     0.19500
H1112       H  0.14010925  0.40980706  0.24389349     0.15400
C1113       C  0.06933579  0.42638519  0.25719663     0.30800
C1114       C  0.06025270  0.43551474  0.26653299    -0.35500
C1115       C  0.04997492  0.44503059  0.25902444     0.16800
C1116       C  0.04877317  0.44550734  0.24342920     0.22600
C1117       C  0.05780564  0.43638099  0.23412913    -0.33600
C1118       C  0.06804808  0.42689454  0.24160434     0.16700
O1119       O  0.07949686  0.41644210  0.26173702    -0.25700
C1120       C  0.08471393  0.41058795  0.24886930     0.06500
C1121       C  0.07803384  0.41662466  0.23599191    -0.30500
O1122       O  0.03855831  0.45527383  0.23874857    -0.22400
C1123       C  0.03308640  0.46116856  0.25147590    -0.02400
C1124       C  0.03972835  0.45520530  0.26448485    -0.16800
H1125       H  0.06110118  0.43517938  0.27876610     0.21200
H1126       H  0.05688892  0.43664557  0.22190026     0.19600
H1127       H  0.07998208  0.41358594  0.22427483     0.19500
H1128       H  0.03744308  0.45805928  0.27619276     0.15400
C1129       C  0.96046009  0.63331578  0.28980806     0.30800
C1130       C  0.95240021  0.61964927  0.28895085    -0.35500
C1131       C  0.94287269  0.61800083  0.27634764     0.16800
C1132       C  0.94133079  0.62908258  0.26542489     0.22600
C1133       C  0.94953243  0.64263321  0.26616324    -0.33600
C1134       C  0.95906030  0.64426071  0.27871905     0.16700
O1135       O  0.96965679  0.63747302  0.30081109    -0.25700
C1136       C  0.97419910  0.65123464  0.29666205     0.06500
C1137       C  0.96800135  0.65601320  0.28299722    -0.30500
O1138       O  0.93076640  0.62584752  0.25545210    -0.22400
C1139       C  0.92562679  0.61238493  0.25982374    -0.02400
C1140       C  0.93272469  0.60695736  0.27280410    -0.16800
H1141       H  0.95320627  0.61107544  0.29768916     0.21200
H1142       H  0.94821711  0.65149084  0.25777991     0.19600
H1143       H  0.96978872  0.66662983  0.27712022     0.19500
H1144       H  0.92993041  0.59711154  0.27950422     0.15400
C1145       C  0.86778232  0.54469985  0.20239174     0.30800
C1146       C  0.88153375  0.55256931  0.20362987    -0.35500
C1147       C  0.88306655  0.56201832  0.21636520     0.16800
C1148       C  0.87171135  0.56381541  0.22692075     0.22600
C1149       C  0.85803488  0.55595586  0.22570179    -0.33600
C1150       C  0.85660530  0.54636109  0.21315334     0.16700
O1151       O  0.86399100  0.53498070  0.19165502    -0.25700
C1152       C  0.85025562  0.53033566  0.19569720     0.06500
C1153       C  0.84510825  0.53707291  0.20895723    -0.30500
O1154       O  0.87511727  0.57382777  0.23743072    -0.22400
C1155       C  0.88898192  0.57828563  0.23383163    -0.02400
C1156       C  0.89453318  0.57135743  0.22080383    -0.16800
H1157       H  0.89041135  0.55137819  0.19529213     0.21200
H1158       H  0.84909850  0.55727043  0.23395630     0.19600
H1159       H  0.83451438  0.53521728  0.21477106     0.19500
H1160       H  0.90502850  0.57358987  0.21494996     0.15400
C1161       C  0.93678801  0.56379738  0.24090611     0.30800
C1162       C  0.94674034  0.55490708  0.23231169    -0.35500
C1163       C  0.95519352  0.54416441  0.24039768     0.16800
C1164       C  0.95401463  0.54233169  0.25589193     0.22600
C1165       C  0.94398580  0.55114995  0.26448066    -0.33600
C1166       C  0.93547383  0.56184120  0.25638622     0.16700
O1167       O  0.92789006  0.57459669  0.23569494    -0.25700
C1168       C  0.92084297  0.57958391  0.24801853     0.06500
C1169       C  0.92493137  0.57198387  0.26117986    -0.30500
O1170       O  0.96308433  0.53168432  0.26112320    -0.22400
C1171       C  0.97009234  0.52656496  0.24880144    -0.02400
C1172       C  0.96562348  0.53391104  0.23558607    -0.16800
H1173       H  0.94782832  0.55627996  0.22017087     0.21200
H1174       H  0.94291055  0.54978755  0.27662536     0.19600
H1175       H  0.92064532  0.57358186  0.27254298     0.19500
H1176       H  0.96955022  0.53200926  0.22412661     0.15400
C1177       C  0.95653563  0.35870979  0.28686143     0.30800
C1178       C  0.94906064  0.37255059  0.28461164    -0.35500
C1179       C  0.93923348  0.37318751  0.27215073     0.16800
C1180       C  0.93682471  0.36101521  0.26263325     0.22600
C1181       C  0.94453745  0.34729195  0.26468303    -0.33600
C1182       C  0.95439251  0.34667319  0.27710436     0.16700
O1183       O  0.96571876  0.35536171  0.29816392    -0.25700
C1184       C  0.96953646  0.34100973  0.29555938     0.06500
C1185       C  0.96289249  0.33506283  0.28256604    -0.30500
O1186       O  0.92609008  0.36362240  0.25261663    -0.22400
C1187       C  0.92176739  0.37775407  0.25554967    -0.02400
C1188       C  0.92957716  0.38427373  0.26757553    -0.16800
H1189       H  0.95047467  0.38201201  0.29228224     0.21200
H1190       H  0.94261158  0.33761234  0.25740791     0.19600
H1191       H  0.96400526  0.32375408  0.27795449     0.19500
H1192       H  0.92763113  0.39509443  0.27296458     0.15400
C1193       C  0.87022507  0.43111721  0.22647612     0.30800
C1194       C  0.85663475  0.43906518  0.22491196    -0.35500
C1195       C  0.85632632  0.45016738  0.21357721     0.16800
C1196       C  0.86851922  0.45328947  0.20435497     0.22600
C1197       C  0.88225961  0.44556967  0.20617495    -0.33600
C1198       C  0.88258604  0.43445833  0.21756998     0.16700
O1199       O  0.87250348  0.41931234  0.23532240    -0.25700
C1200       C  0.88660817  0.41517023  0.23228471     0.06500
C1201       C  0.89345197  0.42421785  0.22134371    -0.30500
O1202       O  0.86536187  0.46352909  0.19389147    -0.22400
C1203       C  0.85099175  0.46702233  0.19656772    -0.02400
C1204       C  0.84485613  0.45912057  0.20872514    -0.16800
H1205       H  0.84680087  0.43638937  0.23167969     0.21200
H1206       H  0.89185656  0.44771643  0.19889702     0.19600
H1207       H  0.90431870  0.42275214  0.21599732     0.19500
H1208       H  0.83346717  0.45967173  0.21313142     0.15400
C1209       C  0.93273897  0.42730618  0.25315089     0.30800
C1210       C  0.93979848  0.43795772  0.26256802    -0.35500
C1211       C  0.95154742  0.44626575  0.25595707     0.16800
C1212       C  0.95593006  0.44431412  0.24106593     0.22600
C1213       C  0.94905065  0.43349047  0.23172432    -0.33600
C1214       C  0.93741222  0.42508207  0.23837289     0.16700
O1215       O  0.92134600  0.41849796  0.25689617    -0.25700
C1216       C  0.91886359  0.41050409  0.24439514     0.06500
C1217       C  0.92854673  0.41394131  0.23254227    -0.30500
O1218       O  0.96681776  0.45362617  0.23707843    -0.22400
C1219       C  0.96954377  0.46154340  0.24960269    -0.02400
C1220       C  0.96045667  0.45741531  0.26175788    -0.16800
H1221       H  0.93630432  0.43971420  0.27418854     0.21200
H1222       H  0.95246669  0.43181929  0.22006479     0.19600
H1223       H  0.92886379  0.40904241  0.22130222     0.19500
H1224       H  0.96027712  0.46212185  0.27308479     0.15400
C1225       C  0.71988910  0.62300763  0.06916660     0.30800
C1226       C  0.71868204  0.63636093  0.06066941    -0.35500
C1227       C  0.70669696  0.63697751  0.05034312     0.16800
C1228       C  0.69651952  0.62528712  0.04849364     0.22600
C1229       C  0.69779730  0.61184149  0.05694441    -0.33600
C1230       C  0.70987559  0.61119166  0.06724945     0.16700
O1231       O  0.72960801  0.62051371  0.08017173    -0.25700
C1232       C  0.72601726  0.60679800  0.08524370     0.06500
C1233       C  0.71374492  0.60047152  0.07769115    -0.30500
O1234       O  0.68591825  0.62854776  0.03847710    -0.22400
C1235       C  0.68942800  0.64248256  0.03385406    -0.02400
C1236       C  0.70225578  0.64825558  0.04084791    -0.16800
H1237       H  0.72636304  0.64576769  0.06225145     0.21200
H1238       H  0.68978699  0.60265571  0.05577103     0.19600
H1239       H  0.70774058  0.59013970  0.08026325     0.19500
H1240       H  0.70745974  0.65923832  0.03926125     0.15400
C1241       C  0.78553243  0.54513175  0.14873206     0.30800
C1242       C  0.77370124  0.55531412  0.15124723    -0.35500
C1243       C  0.76768620  0.56221411  0.13833180     0.16800
C1244       C  0.77278923  0.55921139  0.12386505     0.22600
C1245       C  0.78475956  0.54905417  0.12134688    -0.33600
C1246       C  0.79096228  0.54226879  0.13434701     0.16700
O1247       O  0.79250127  0.53721382  0.15921667    -0.25700
C1248       C  0.80270469  0.52927877  0.15156417     0.06500
C1249       C  0.80238089  0.53199285  0.13602269    -0.30500
O1250       O  0.76559877  0.56723502  0.11349349    -0.22400
C1251       C  0.75588896  0.57552218  0.12149364    -0.02400
C1252       C  0.75672038  0.57284439  0.13698899    -0.16800
H1253       H  0.76951348  0.55772849  0.16251445     0.21200
H1254       H  0.78899557  0.54670264  0.11008829     0.19600
H1255       H  0.80913289  0.52674339  0.12725495     0.19500
H1256       H  0.75036209  0.57819922  0.14599072     0.15400
C1257       C  0.74141113  0.54135230  0.05256705     0.30800
C1258       C  0.73119008  0.54813709  0.06261543    -0.35500
C1259       C  0.73731261  0.55865038  0.07279776     0.16800
C1260       C  0.75247556  0.56226327  0.07310445     0.22600
C1261       C  0.76275034  0.55528892  0.06319371    -0.33600
C1262       C  0.75660827  0.54476860  0.05297208     0.16700
O1263       O  0.73803584  0.53147559  0.04189781    -0.25700
C1264       C  0.75123353  0.52843925  0.03539153     0.06500
C1265       C  0.76321770  0.53634984  0.04183497    -0.30500
O1266       O  0.75562088  0.57284351  0.08319060    -0.22400
C1267       C  0.74228121  0.57598572  0.08934098    -0.02400
C1268       C  0.73052622  0.56738993  0.08350530    -0.16800
H1269       H  0.71924543  0.54556220  0.06235724     0.21200
H1270       H  0.77465539  0.55803654  0.06329563     0.19600
H1271       H  0.77502066  0.53601808  0.03869494     0.19500
H1272       H  0.71875503  0.56751098  0.08671384     0.15400
C1273       C  0.71989491  0.34901180  0.04431434     0.30800
C1274       C  0.73240887  0.34753571  0.05390917    -0.35500
C1275       C  0.73695373  0.36069767  0.06150887     0.16800
C1276       C  0.72984953  0.37449322  0.05969013     0.22600
C1277       C  0.71726908  0.37597513  0.05004477    -0.33600
C1278       C  0.71254374  0.36269175  0.04259331     0.16700
O1279       O  0.71381599  0.33810116  0.03616054    -0.25700
C1280       C  0.70226208  0.34474712  0.02920484     0.06500
C1281       C  0.70085805  0.36005925  0.03281283    -0.30500
O1282       O  0.73552432  0.38507404  0.06866355    -0.22400
C1283       C  0.74631872  0.37787655  0.07634672    -0.02400
C1284       C  0.74768304  0.36271751  0.07232039    -0.16800
H1285       H  0.73803994  0.33678010  0.05556259     0.21200
H1286       H  0.71137143  0.38663063  0.04872451     0.19600
H1287       H  0.69272610  0.36813365  0.02850169     0.19500
H1288       H  0.75501531  0.35422985  0.07724444     0.15400
C1289       C  0.79902253  0.45089386  0.13291080     0.30800
C1290       C  0.79899814  0.44225491  0.11954882    -0.35500
C1291       C  0.78712202  0.43186523  0.11795635     0.16800
C1292       C  0.77609797  0.42999273  0.12882463     0.22600
C1293       C  0.77605461  0.43871159  0.14215450    -0.33600
C1294       C  0.78789331  0.44917379  0.14371284     0.16700
O1295       O  0.80926129  0.46099640  0.13686254    -0.25700
C1296       C  0.80464977  0.46586089  0.15037278     0.06500
C1297       C  0.79137656  0.45892817  0.15519448    -0.30500
O1298       O  0.76666331  0.41892864  0.12545456    -0.22400
C1299       C  0.77151105  0.41382938  0.11210342    -0.02400
C1300       C  0.78429569  0.42139233  0.10696973    -0.16800
H1301       H  0.80777249  0.44338359  0.11108977     0.21200
H1302       H  0.76755962  0.43722347  0.15084109     0.19600
H1303       H  0.78529213  0.46070880  0.16568140     0.19500
H1304       H  0.79122984  0.41885938  0.09723624     0.15400
C1305       C  0.75099361  0.42646215  0.06474125     0.30800
C1306       C  0.74153727  0.43645139  0.05685276    -0.35500
C1307       C  0.74874527  0.44667863  0.04711082     0.16800
C1308       C  0.76420787  0.44707152  0.04523861     0.22600
C1309       C  0.77366996  0.43692206  0.05295924    -0.33600
C1310       C  0.76645361  0.42668694  0.06272025     0.16700
O1311       O  0.74667584  0.41631272  0.07479305    -0.25700
C1312       C  0.75954147  0.41001336  0.07925078     0.06500
C1313       C  0.77220216  0.41580101  0.07199936    -0.30500
O1314       O  0.76853135  0.45781405  0.03580870    -0.22400
C1315       C  0.75565965  0.46432106  0.03155824    -0.02400
C1316       C  0.74298624  0.45783058  0.03818461    -0.16800
H1317       H  0.72941350  0.43638540  0.05835949     0.21200
H1318       H  0.78581051  0.43712622  0.05160651     0.19600
H1319       H  0.78386375  0.41243983  0.07328987     0.19500
H1320       H  0.73126280  0.46095761  0.03671244     0.15400
C1321       C  0.71697897  0.61617313  0.93768257     0.30800
C1322       C  0.70554687  0.61370786  0.94847611    -0.35500
C1323       C  0.70012822  0.62667940  0.95598110     0.16800
C1324       C  0.70577213  0.64098736  0.95317890     0.22600
C1325       C  0.71702181  0.64345179  0.94232286    -0.33600
C1326       C  0.72227124  0.63057342  0.93473862     0.16700
O1327       O  0.72344079  0.60583653  0.92899879    -0.25700
C1328       C  0.73290053  0.61378741  0.92037214     0.06500
C1329       C  0.73257048  0.62922270  0.92344454    -0.30500
O1330       O  0.69952427  0.65145260  0.96174148    -0.22400
C1331       C  0.68956031  0.64387129  0.97005294    -0.02400
C1332       C  0.68933792  0.62839772  0.96692106    -0.16800
H1333       H  0.70113499  0.60251251  0.95078167     0.21200
H1334       H  0.72135303  0.65466196  0.93992194     0.19600
H1335       H  0.73881412  0.63819354  0.91790776     0.19500
H1336       H  0.68256521  0.61968696  0.97223404     0.15400
C1337       C  0.77985853  0.56367369  0.88228740     0.30800
C1338       C  0.79360573  0.55569207  0.88180881    -0.35500
C1339       C  0.79609712  0.54684965  0.86877659     0.16800
C1340       C  0.78568596  0.54584834  0.85717409     0.22600
C1341       C  0.77197126  0.55365846  0.85771450    -0.33600
C1342       C  0.76957083  0.56256822  0.87058237     0.16700
O1343       O  0.77571353  0.57372331  0.89259963    -0.25700
C1344       C  0.76264748  0.57902108  0.88732319     0.06500
C1345       C  0.75831217  0.57247579  0.87371475    -0.30500
O1346       O  0.79033845  0.53730043  0.84590704    -0.22400
C1347       C  0.80395401  0.53272013  0.85022585    -0.02400
C1348       C  0.80818264  0.53828430  0.86438718    -0.16800
H1349       H  0.80196126  0.55670357  0.89069923     0.21200
H1350       H  0.76392205  0.55319332  0.84849730     0.19600
H1351       H  0.74870722  0.57533703  0.86668981     0.19500
H1352       H  0.81857391  0.53628183  0.87051757     0.15400
C1353       C  0.74471955  0.54649479  0.95422929     0.30800
C1354       C  0.73522264  0.55488741  0.94468306    -0.35500
C1355       C  0.74236103  0.56540022  0.93519103     0.16800
C1356       C  0.75781656  0.56745241  0.93500143     0.22600
C1357       C  0.76732680  0.55903907  0.94454820    -0.33600
C1358       C  0.76016122  0.54857426  0.95411227     0.16700
O1359       O  0.74042263  0.53606282  0.96400486    -0.25700
C1360       C  0.75326751  0.53139385  0.97025462     0.06500
C1361       C  0.76592553  0.53877602  0.96454324    -0.30500
O1362       O  0.76206852  0.57779403  0.92509504    -0.22400
C1363       C  0.74913280  0.58250213  0.91907356    -0.02400
C1364       C  0.73651769  0.57513871  0.92477682    -0.16800
H1365       H  0.72310815  0.55333881  0.94467050     0.21200
H1366       H  0.77944751  0.56054124  0.94451641     0.19600
H1367       H  0.77764183  0.53710664  0.96759123     0.19500
H1368       H  0.72483075  0.57657467  0.92152668     0.15400
C1369       C  0.72071773  0.35289274  0.95276082     0.30800
C1370       C  0.73356383  0.35207453  0.94360375    -0.35500
C1371       C  0.73721247  0.36523849  0.93561358     0.16800
C1372       C  0.72894368  0.37845075  0.93665843     0.22600
C1373       C  0.71601898  0.37928355  0.94588595    -0.33600
C1374       C  0.71222183  0.36596807  0.95377017     0.16700
O1375       O  0.71520057  0.34174274  0.96092033    -0.25700
C1376       C  0.70290751  0.34760398  0.96721219     0.06500
C1377       C  0.70042128  0.36266783  0.96318294    -0.30500
O1378       O  0.73404356  0.38910313  0.92746828    -0.22400
C1379       C  0.74563640  0.38251611  0.92047277    -0.02400
C1380       C  0.74808870  0.36769476  0.92509436    -0.16800
H1381       H  0.74007155  0.34175478  0.94251523     0.21200
H1382       H  0.70921407  0.38944337  0.94656858     0.19600
H1383       H  0.69136787  0.37008195  0.96676154     0.19500
H1384       H  0.75629876  0.35968869  0.92080560     0.15400
C1385       C  0.77651922  0.43492229  0.86949644     0.30800
C1386       C  0.77685598  0.44345716  0.85612239    -0.35500
C1387       C  0.78877931  0.45375997  0.85477993     0.16800
C1388       C  0.79971116  0.45553351  0.86578630     0.22600
C1389       C  0.79926031  0.44710712  0.87930054    -0.33600
C1390       C  0.78721200  0.43686026  0.88071697     0.16700
O1391       O  0.76698843  0.42391724  0.87255822    -0.25700
C1392       C  0.77137982  0.41891952  0.88606107     0.06500
C1393       C  0.78389704  0.42654434  0.89175011    -0.30500
O1394       O  0.81004472  0.46559466  0.86191249    -0.22400
C1395       C  0.80557650  0.47033028  0.84829613    -0.02400
C1396       C  0.79240760  0.46336955  0.84332632    -0.16800
H1397       H  0.76856783  0.44194047  0.84723814     0.21200
H1398       H  0.80781085  0.44828672  0.88797878     0.19600
H1399       H  0.79022764  0.42413230  0.90195775     0.19500
H1400       H  0.78641373  0.46511766  0.83277576     0.15400
C1401       C  0.76502827  0.43019648  0.93474113     0.30800
C1402       C  0.77350343  0.43886919  0.94499998    -0.35500
C1403       C  0.76537997  0.44944441  0.95360907     0.16800
C1404       C  0.74996370  0.45128439  0.95229571     0.22600
C1405       C  0.74147382  0.44256651  0.94209057    -0.33600
C1406       C  0.74959439  0.43203178  0.93343953     0.16700
O1407       O  0.77034776  0.41985628  0.92537726    -0.25700
C1408       C  0.75813696  0.41501324  0.91809641     0.06500
C1409       C  0.74490387  0.42212472  0.92258431    -0.30500
O1410       O  0.74467995  0.46181973  0.96145715    -0.22400
C1411       C  0.75687688  0.46686248  0.96866739    -0.02400
C1412       C  0.77008126  0.45956955  0.96426003    -0.16800
H1413       H  0.78559379  0.43754086  0.94610981     0.21200
H1414       H  0.72939279  0.44395124  0.94092877     0.19600
H1415       H  0.73358526  0.42035351  0.91833026     0.19500
H1416       H  0.78143798  0.46138031  0.96840247     0.15400
C1417       C  0.06207322  0.62002270  0.72005420     0.30800
C1418       C  0.05143845  0.61796272  0.70835199    -0.35500
C1419       C  0.04432574  0.63120426  0.70301157     0.16800
C1420       C  0.04737015  0.64533395  0.70899872     0.22600
C1421       C  0.05795060  0.64736699  0.72054270    -0.33600
C1422       C  0.06513462  0.63427810  0.72568292     0.16700
O1423       O  0.07048586  0.60946020  0.72652961    -0.25700
C1424       C  0.07902499  0.61719556  0.73628767     0.06500
C1425       C  0.07614221  0.63263998  0.73618121    -0.30500
O1426       O  0.03937996  0.65615317  0.70270037    -0.22400
C1427       C  0.03115154  0.64903705  0.69235283    -0.02400
C1428       C  0.03373654  0.63345491  0.69193481    -0.16800
H1429       H  0.04901097  0.60690055  0.70365983     0.21200
H1430       H  0.06050029  0.65845031  0.72512549     0.19600
H1431       H  0.08156849  0.64144921  0.74275415     0.19500
H1432       H  0.02836476  0.62505150  0.68481355     0.15400
C1433       C  0.12548407  0.56340991  0.76930324     0.30800
C1434       C  0.13748592  0.55318792  0.76797043    -0.35500
C1435       C  0.14002168  0.54379984  0.78048880     0.16800
C1436       C  0.13126568  0.54429082  0.79341880     0.22600
C1437       C  0.11911671  0.55443536  0.79469739    -0.33600
C1438       C  0.11664534  0.56394062  0.78218222     0.16700
O1439       O  0.12194482  0.57400195  0.75943701    -0.25700
C1440       C  0.11057301  0.58130748  0.76595065     0.06500
C1441       C  0.10681227  0.57564803  0.78016259    -0.30500
O1442       O  0.13615313  0.53493221  0.80400252    -0.22400
C1443       C  0.14822205  0.52847053  0.79775354    -0.02400
C1444       C  0.15111446  0.53351129  0.78312351    -0.16800
H1445       H  0.14468234  0.55294099  0.75805714     0.21200
H1446       H  0.11237673  0.55519250  0.80490222     0.19600
H1447       H  0.09868470  0.58006280  0.78817641     0.19500
H1448       H  0.16023773  0.53026434  0.77563744     0.15400
C1449       C  0.04474496  0.54923041  0.75474970     0.30800
C1450       C  0.05323220  0.55850308  0.76442316    -0.35500
C1451       C  0.06325587  0.56851385  0.75732490     0.16800
C1452       C  0.06482528  0.56939877  0.74176795     0.22600
C1453       C  0.05633472  0.56011102  0.73209315    -0.33600
C1454       C  0.04631784  0.55007479  0.73920077     0.16700
O1455       O  0.03455104  0.53920075  0.75893868    -0.25700
C1456       C  0.02952629  0.53355863  0.74590228     0.06500
C1457       C  0.03645508  0.53987430  0.73324994    -0.30500
O1458       O  0.07489515  0.57958166  0.73759994    -0.22400
C1459       C  0.07980252  0.58518675  0.75068380    -0.02400
C1460       C  0.07296726  0.57880152  0.76331494    -0.16800
H1461       H  0.05207783  0.55797506  0.77662631     0.21200
H1462       H  0.05743145  0.56069442  0.71988907     0.19600
H1463       H  0.03437110  0.53743835  0.72140837     0.19500
H1464       H  0.07477915  0.58146713  0.77513578     0.15400
C1465       C  0.06014136  0.37199725  0.71930980     0.30800
C1466       C  0.05215344  0.35837882  0.71797721    -0.35500
C1467       C  0.04161048  0.35770077  0.70618686     0.16800
C1468       C  0.03911705  0.36955760  0.69629186     0.22600
C1469       C  0.04701363  0.38327830  0.69773956    -0.33600
C1470       C  0.05751127  0.38400134  0.70964107     0.16700
O1471       O  0.07124806  0.37464936  0.72883892    -0.25700
C1472       C  0.07564930  0.38864415  0.72547864     0.06500
C1473       C  0.06753643  0.39503003  0.71357373    -0.30500
O1474       O  0.02901387  0.36621463  0.68581211    -0.22400
C1475       C  0.02496144  0.35208119  0.68915452    -0.02400
C1476       C  0.03241513  0.34623871  0.70172510    -0.16800
H1477       H  0.05425395  0.34885222  0.72541209     0.21200
H1478       H  0.04529122  0.39262015  0.68998302     0.19600
H1479       H  0.06946161  0.40564921  0.70781754     0.19500
H1480       H  0.03129190  0.33510824  0.70675818     0.15400
C1481       C  0.13206775  0.45365951  0.78705834     0.30800
C1482       C  0.11778864  0.44747960  0.78381300    -0.35500
C1483       C  0.11700003  0.43804466  0.77098354     0.16800
C1484       C  0.12944866  0.43481747  0.76216179     0.22600
C1485       C  0.14361114  0.44101958  0.76533496    -0.33600
C1486       C  0.14436169  0.45048838  0.77799657     0.16700
O1487       O  0.13546991  0.46304720  0.79823246    -0.25700
C1488       C  0.15009450  0.46589090  0.79614052     0.06500
C1489       C  0.15616899  0.45834497  0.78375949    -0.30500
O1490       O  0.12653224  0.42496270  0.75139731    -0.22400
C1491       C  0.11195134  0.42192265  0.75307340    -0.02400
C1492       C  0.10537569  0.42975707  0.76509711    -0.16800
H1493       H  0.10802188  0.44981139  0.79080235     0.21200
H1494       H  0.15342302  0.43850615  0.75847388     0.19600
H1495       H  0.16757970  0.45889020  0.77941021     0.19500
H1496       H  0.09410474  0.42864239  0.76963799     0.15400
C1497       C  0.06229184  0.43411052  0.74824185     0.30800
C1498       C  0.05161092  0.44133893  0.75750513    -0.35500
C1499       C  0.04258621  0.45230575  0.75039487     0.16800
C1500       C  0.04391534  0.45581091  0.73520178     0.22600
C1501       C  0.05468543  0.44871481  0.72599130    -0.33600
C1502       C  0.06378903  0.43787389  0.73311759     0.16700
O1503       O  0.07174881  0.42335085  0.75242501    -0.25700
C1504       C  0.07942843  0.42036696  0.73983506     0.06500
C1505       C  0.07509945  0.42910715  0.72750874    -0.30500
O1506       O  0.03433904  0.46636990  0.73087931    -0.22400
C1507       C  0.02681996  0.46976702  0.74346747    -0.02400
C1508       C  0.03147638  0.46140004  0.75599661    -0.16800
H1509       H  0.05042055  0.43860304  0.76940166     0.21200
H1510       H  0.05589340  0.45147181  0.71410032     0.19600
H1511       H  0.07959847  0.42895993  0.71611328     0.19500
H1512       H  0.02734733  0.46201247  0.76752497     0.15400
C1513       C  0.93466848  0.63540664  0.72725717     0.30800
C1514       C  0.94331211  0.64844779  0.72479860    -0.35500
C1515       C  0.95290436  0.64809169  0.71220941     0.16800
C1516       C  0.95393918  0.63579559  0.70259685     0.22600
C1517       C  0.94542546  0.62261602  0.70519361    -0.33600
C1518       C  0.93587564  0.62292656  0.71790254     0.16700
O1519       O  0.92427989  0.63372473  0.73778429    -0.25700
C1520       C  0.91893147  0.61987054  0.73538068     0.06500
C1521       C  0.92572971  0.61258171  0.72316593    -0.30500
O1522       O  0.96342756  0.63817238  0.69129145    -0.22400
C1523       C  0.96852669  0.65214285  0.69381096    -0.02400
C1524       C  0.96238924  0.65880823  0.70667788    -0.16800
H1525       H  0.94240107  0.65830745  0.73203117     0.21200
H1526       H  0.94603460  0.61290799  0.69772584     0.19600
H1527       H  0.92293882  0.60170894  0.71826160     0.19500
H1528       H  0.96459323  0.66996526  0.71126627     0.15400
C1529       C  0.86640016  0.57139810  0.77056565     0.30800
C1530       C  0.85262972  0.56389530  0.77284818    -0.35500
C1531       C  0.85248377  0.55291067  0.78432695     0.16800
C1532       C  0.86497654  0.54964712  0.79308762     0.22600
C1533       C  0.87880184  0.55704850  0.79068815    -0.33600
C1534       C  0.87900917  0.56788951  0.77905048     0.16700
O1535       O  0.86885940  0.58254712  0.76094943    -0.25700
C1536       C  0.88331807  0.58603245  0.76304329     0.06500
C1537       C  0.89022456  0.57727365  0.77417261    -0.30500
O1538       O  0.86221666  0.53915014  0.80337188    -0.22400
C1539       C  0.84780477  0.53555984  0.80107988    -0.02400
C1540       C  0.84118633  0.54374173  0.78934879    -0.16800
H1541       H  0.84268012  0.56655207  0.76623817     0.21200
H1542       H  0.88867788  0.55459223  0.79748037     0.19600
H1543       H  0.90152471  0.57826804  0.77868058     0.19500
H1544       H  0.82972109  0.54303932  0.78516582     0.15400
C1545       C  0.92884061  0.57083403  0.74038927     0.30800
C1546       C  0.93545144  0.55951511  0.73142997    -0.35500
C1547       C  0.94782997  0.55198527  0.73784740     0.16800
C1548       C  0.95325606  0.55526712  0.75215027     0.22600
C1549       C  0.94686542  0.56681898  0.76097381    -0.33600
C1550       C  0.93453080  0.57439747  0.75453443     0.16700
O1551       O  0.91702645  0.57914510  0.73673577    -0.25700
C1552       C  0.91520352  0.58808601  0.74870780     0.06500
C1553       C  0.92580668  0.58581636  0.76005461    -0.30500
O1554       O  0.96435817  0.54620996  0.75625206    -0.22400
C1555       C  0.96617958  0.53715703  0.74434092    -0.02400
C1556       C  0.95631283  0.54030306  0.73250157    -0.16800
H1557       H  0.93112314  0.55664383  0.72032178     0.21200
H1558       H  0.95105490  0.56953539  0.77217334     0.19600
H1559       H  0.92690737  0.59176534  0.77072157     0.19500
H1560       H  0.95519714  0.53445045  0.72177615     0.15400
C1561       C  0.92810778  0.37681014  0.71692624     0.30800
C1562       C  0.93758326  0.36412694  0.71770647    -0.35500
C1563       C  0.94658408  0.36145264  0.70494344     0.16800
C1564       C  0.94634489  0.37063903  0.69227952     0.22600
C1565       C  0.93681160  0.38331417  0.69148182    -0.33600
C1566       C  0.92778102  0.38598924  0.70426179     0.16700
O1567       O  0.91817485  0.38090967  0.72722636    -0.25700
C1568       C  0.91154652  0.39300677  0.72121241     0.06500
C1569       C  0.91689881  0.39657841  0.70684201    -0.30500
O1570       O  0.95564528  0.36591418  0.68160622    -0.22400
C1571       C  0.96184515  0.35351777  0.68751855    -0.02400
C1572       C  0.95661715  0.35019241  0.70199896    -0.16800
H1573       H  0.93773701  0.35671488  0.72748205     0.21200
H1574       H  0.93632746  0.39046724  0.68152768     0.19600
H1575       H  0.91273396  0.40505828  0.69904068     0.19500
H1576       H  0.95978946  0.34085484  0.70929316     0.15400
C1577       C  0.87516149  0.44070922  0.77008936     0.30800
C1578       C  0.87759227  0.45014014  0.78272474    -0.35500
C1579       C  0.86480374  0.45776129  0.78831840     0.16800
C1580       C  0.85071104  0.45623471  0.78181116     0.22600
C1581       C  0.84827110  0.44672576  0.76938284    -0.33600
C1582       C  0.86095685  0.43911441  0.76388313     0.16700
O1583       O  0.88532433  0.43226675  0.76308579    -0.25700
C1584       C  0.87742739  0.42522390  0.75232921     0.06500
C1585       C  0.86223210  0.42904240  0.75237405    -0.30500
O1586       O  0.84044214  0.46475160  0.78834791    -0.22400
C1587       C  0.84792059  0.47180421  0.79931586    -0.02400
C1588       C  0.86313334  0.46784611  0.79996057    -0.16800
H1589       H  0.88863139  0.45145125  0.78780364     0.21200
H1590       H  0.83723202  0.44540668  0.76430199     0.19600
H1591       H  0.85334259  0.42474960  0.74513475     0.19500
H1592       H  0.87173509  0.47212889  0.80754247     0.15400
C1593       C  0.92413585  0.43988493  0.74577470     0.30800
C1594       C  0.93289191  0.44889217  0.75549712    -0.35500
C1595       C  0.94375840  0.45809691  0.74849798     0.16800
C1596       C  0.94579685  0.45851547  0.73299083     0.22600
C1597       C  0.93695668  0.44961312  0.72325659    -0.33600
C1598       C  0.92618414  0.44031843  0.73026654     0.16700
O1599       O  0.91358368  0.43016866  0.74988794    -0.25700
C1600       C  0.90889580  0.42427935  0.73683643     0.06500
C1601       C  0.91623770  0.43024078  0.72425202    -0.30500
O1602       O  0.95678795  0.46772834  0.72891378    -0.22400
C1603       C  0.96188417  0.47325900  0.74198283    -0.02400
C1604       C  0.95418086  0.46769221  0.75454187    -0.16800
H1605       H  0.93146907  0.44859417  0.76767515     0.21200
H1606       H  0.93851461  0.44975870  0.71109210     0.19600
H1607       H  0.91436932  0.42776103  0.71242038     0.19500
H1608       H  0.95607285  0.47026171  0.76638712     0.15400
C1609       C  0.28185638  0.63995363  0.04469016     0.30800
C1610       C  0.26994716  0.64036302  0.05509967    -0.35500
C1611       C  0.26741874  0.62699798  0.06323567     0.16800
C1612       C  0.27582544  0.61399679  0.06109803     0.22600
C1613       C  0.28769141  0.61355031  0.05058507    -0.33600
C1614       C  0.29042256  0.62704202  0.04265086     0.16700
O1615       O  0.28659693  0.65139527  0.03639970    -0.25700
C1616       C  0.29844263  0.64580797  0.02905597     0.06500
C1617       C  0.30138410  0.63070835  0.03248495    -0.30500
O1618       O  0.27222110  0.60320244  0.07076191    -0.22400
C1619       C  0.26143018  0.60942676  0.07917493    -0.02400
C1620       C  0.25799637  0.62419638  0.07503194    -0.16800
H1621       H  0.26346688  0.65056001  0.05711063     0.21200
H1622       H  0.29466344  0.60358897  0.04912963     0.19600
H1623       H  0.31028410  0.62352646  0.02812992     0.19500
H1624       H  0.25024653  0.63196668  0.08046371     0.15400
C1625       C  0.22264263  0.55638912  0.11978591     0.30800
C1626       C  0.20961520  0.54743101  0.11926939    -0.35500
C1627       C  0.20688144  0.53847242  0.13206335     0.16800
C1628       C  0.21641104  0.53817484  0.14444517     0.22600
C1629       C  0.22948610  0.54711230  0.14494969    -0.33600
C1630       C  0.23210814  0.55623436  0.13221636     0.16700
O1631       O  0.22675919  0.56638272  0.10952678    -0.25700
C1632       C  0.23900947  0.57271713  0.11541560     0.06500
C1633       C  0.24284869  0.56690683  0.12955611    -0.30500
O1634       O  0.21152210  0.52909941  0.15523200    -0.22400
C1635       C  0.19865559  0.52363234  0.14970341    -0.02400
C1636       C  0.19519996  0.52905749  0.13533679    -0.16800
H1637       H  0.20193871  0.54773762  0.10973239     0.21200
H1638       H  0.23687567  0.54722512  0.15471834     0.19600
H1639       H  0.25184027  0.57051575  0.13703855     0.19500
H1640       H  0.18554031  0.52638141  0.12831968     0.15400
C1641       C  0.24020229  0.54418434  0.04448490     0.30800
C1642       C  0.23179285  0.55158788  0.05580499    -0.35500
C1643       C  0.23988006  0.56161558  0.06516125     0.16800
C1644       C  0.25513734  0.56424316  0.06338404     0.22600
C1645       C  0.26346775  0.55700442  0.05200028    -0.33600
C1646       C  0.25544039  0.54691862  0.04277052     0.16700
O1647       O  0.23517324  0.53383981  0.03489064    -0.25700
C1648       C  0.24739338  0.52990795  0.02700392     0.06500
C1649       C  0.26027928  0.53774655  0.03139214    -0.30500
O1650       O  0.26051390  0.57388796  0.07341035    -0.22400
C1651       C  0.24859481  0.57745376  0.08181281    -0.02400
C1652       C  0.23537747  0.57029767  0.07714597    -0.16800
H1653       H  0.21986640  0.54947863  0.05738095     0.21200
H1654       H  0.27544607  0.55892366  0.05059446     0.19600
H1655       H  0.27164525  0.53657667  0.02706062     0.19500
H1656       H  0.22408474  0.57158395  0.08159544     0.15400
C1657       C  0.30014642  0.36341180  0.04013855     0.30800
C1658       C  0.29833600  0.37682214  0.04855444    -0.35500
C1659       C  0.28567089  0.37736616  0.05812897     0.16800
C1660       C  0.27566393  0.36545045  0.05942617     0.22600
C1661       C  0.27743314  0.35214050  0.05101428    -0.33600
C1662       C  0.28995330  0.35165591  0.04140032     0.16700
O1663       O  0.31102949  0.36040864  0.03035629    -0.25700
C1664       C  0.30765372  0.34658245  0.02533166     0.06500
C1665       C  0.29468314  0.34061068  0.03183635    -0.30500
O1666       O  0.26518171  0.36789012  0.06966928    -0.22400
C1667       C  0.26824478  0.38167321  0.07485213    -0.02400
C1668       C  0.28092296  0.38814746  0.06814920    -0.16800
H1669       H  0.30625851  0.38611714  0.04775376     0.21200
H1670       H  0.26965941  0.34273553  0.05202292     0.19600
H1671       H  0.28939485  0.32976829  0.02966175     0.19500
H1672       H  0.28643278  0.39871417  0.07096922     0.15400
C1673       C  0.21525844  0.44632702  0.14142785     0.30800
C1674       C  0.22763869  0.43651673  0.14199957    -0.35500
C1675       C  0.23106728  0.42890656  0.12853604     0.16800
C1676       C  0.22300862  0.43084492  0.11528918     0.22600
C1677       C  0.21053821  0.44069087  0.11471144    -0.33600
C1678       C  0.20698499  0.44822888  0.12829727     0.16700
O1679       O  0.21006839  0.45444027  0.15280179    -0.25700
C1680       C  0.19820791  0.46158413  0.14699446     0.06500
C1681       C  0.19569406  0.45815140  0.13178500    -0.30500
O1682       O  0.22791661  0.42197765  0.10426295    -0.22400
C1683       C  0.23921290  0.41431111  0.11062775    -0.02400
C1684       C  0.24161097  0.41816262  0.12569021    -0.16800
H1685       H  0.23401738  0.43475138  0.15231306     0.21200
H1686       H  0.20392001  0.44215195  0.10450138     0.19600
H1687       H  0.18696315  0.46248231  0.12437484     0.19500
H1688       H  0.24963558  0.41330003  0.13356121     0.15400
C1689       C  0.25938241  0.42892609  0.06217789     0.30800
C1690       C  0.26775279  0.43868197  0.05284203    -0.35500
C1691       C  0.25931957  0.44843308  0.04355844     0.16800
C1692       C  0.24373945  0.44850029  0.04338109     0.22600
C1693       C  0.23538410  0.43868900  0.05263933    -0.33600
C1694       C  0.24379691  0.42903497  0.06200650     0.16700
O1695       O  0.26490500  0.41903631  0.07192184    -0.25700
C1696       C  0.25267892  0.41286322  0.07810038     0.06500
C1697       C  0.23923931  0.41853603  0.07232397    -0.30500
O1698       O  0.23815808  0.45857616  0.03387525    -0.22400
C1699       C  0.25031430  0.46508587  0.02790664    -0.02400
C1700       C  0.26379947  0.45922487  0.03349413    -0.16800
H1701       H  0.27996370  0.43874895  0.05290138     0.21200
H1702       H  0.22317299  0.43867409  0.05263379     0.19600
H1703       H  0.22782307  0.41527754  0.07518827     0.19500
H1704       H  0.27521342  0.46241958  0.03052073     0.15400
C1705       C  0.26790343  0.62921437  0.93044280     0.30800
C1706       C  0.26992776  0.64303836  0.93799649    -0.35500
C1707       C  0.28117647  0.64327192  0.94915402     0.16800
C1708       C  0.28996437  0.63081324  0.95256213     0.22600
C1709       C  0.28778410  0.61690719  0.94514206    -0.33600
C1710       C  0.27639352  0.61662510  0.93408203     0.16700
O1711       O  0.25866818  0.62674518  0.91900979    -0.25700
C1712       C  0.26101106  0.61229365  0.91542758     0.06500
C1713       C  0.27194455  0.60541783  0.92443842    -0.30500
O1714       O  0.30019774  0.63376885  0.96302627    -0.22400
C1715       C  0.29781368  0.64826562  0.96642740    -0.02400
C1716       C  0.28607682  0.65472822  0.95820364    -0.16800
H1717       H  0.26337777  0.65300192  0.93516900     0.21200
H1718       H  0.29463963  0.60706682  0.94764931     0.19600
H1719       H  0.27672979  0.59420884  0.92340863     0.19500
H1720       H  0.28190555  0.66624804  0.95870354     0.15400
C1721       C  0.20616340  0.54141241  0.85939769     0.30800
C1722       C  0.20842156  0.54855412  0.87344019    -0.35500
C1723       C  0.22070194  0.55856404  0.87426341     0.16800
C1724       C  0.23000016  0.56144700  0.86205095     0.22600
C1725       C  0.22792554  0.55409709  0.84811935    -0.33600
C1726       C  0.21570633  0.54406036  0.84732295     0.16700
O1727       O  0.19515774  0.53194728  0.85595278    -0.25700
C1728       C  0.19773557  0.52846792  0.84150423     0.06500
C1729       C  0.21039853  0.53563913  0.83556520    -0.30500
O1730       O  0.23980911  0.57230353  0.86482538    -0.22400
C1731       C  0.23699839  0.57624627  0.87909460    -0.02400
C1732       C  0.22525934  0.56803092  0.88558371    -0.16800
H1733       H  0.20091487  0.54671757  0.88294091     0.21200
H1734       H  0.23506413  0.55639899  0.83843351     0.19600
H1735       H  0.21499648  0.53477404  0.82423030     0.19500
H1736       H  0.22001344  0.56965473  0.89653068     0.15400
C1737       C  0.24086623  0.56532395  0.92866993     0.30800
C1738       C  0.23196415  0.55810676  0.93967400    -0.35500
C1739       C  0.23884510  0.54609710  0.94747013     0.16800
C1740       C  0.25352432  0.54164025  0.94471485     0.22600
C1741       C  0.26233543  0.54867929  0.93355710    -0.33600
C1742       C  0.25542176  0.56057442  0.92567466     0.16700
O1743       O  0.23679483  0.57691530  0.92018006    -0.25700
C1744       C  0.24888685  0.57949787  0.91166038     0.06500
C1745       C  0.26076462  0.56963466  0.91440692    -0.30500
O1746       O  0.25794188  0.53064181  0.95375799    -0.22400
C1747       C  0.24590824  0.52786977  0.96231940    -0.02400
C1748       C  0.23362539  0.53706248  0.95886576    -0.16800
H1749       H  0.22053138  0.56168737  0.94207168     0.21200
H1750       H  0.27383166  0.54521584  0.93128878     0.19600
H1751       H  0.27169656  0.56929261  0.90895454     0.19500
H1752       H  0.22266606  0.53735228  0.96427058     0.15400
C1753       C  0.28207721  0.37981786  0.92950243     0.30800
C1754       C  0.29309777  0.38128227  0.94087605    -0.35500
C1755       C  0.29729732  0.36781199  0.94825463     0.16800
C1756       C  0.29089612  0.35396727  0.94480708     0.22600
C1757       C  0.28003176  0.35249846  0.93340821    -0.33600
C1758       C  0.27600672  0.36586604  0.92594402     0.16700
O1759       O  0.27682728  0.39072748  0.92071150    -0.25700
C1760       C  0.26736079  0.38358381  0.91141953     0.06500
C1761       C  0.26648016  0.36811563  0.91414455    -0.30500
O1762       O  0.29632810  0.34285655  0.95309368    -0.22400
C1763       C  0.30650255  0.34956502  0.96186825    -0.02400
C1764       C  0.30767516  0.36509473  0.95936021    -0.16800
H1765       H  0.29818177  0.39208790  0.94361451     0.21200
H1766       H  0.27518834  0.34164149  0.93043591     0.19600
H1767       H  0.26000012  0.35969215  0.90804598     0.19500
H1768       H  0.31497654  0.37316091  0.96498265     0.15400
C1769       C  0.23203003  0.43417811  0.86062369     0.30800
C1770       C  0.22955067  0.44143804  0.84671754    -0.35500
C1771       C  0.21704471  0.45110342  0.84608841     0.16800
C1772       C  0.20756609  0.45342224  0.85827985     0.22600
C1773       C  0.21012906  0.44623382  0.87225502    -0.33600
C1774       C  0.22273588  0.43662556  0.87292203     0.16700
O1775       O  0.24236629  0.42383741  0.86331168    -0.25700
C1776       C  0.23990596  0.41972629  0.87760245     0.06500
C1777       C  0.22778185  0.42730424  0.88418018    -0.30500
O1778       O  0.19639148  0.46275099  0.85504757    -0.22400
C1779       C  0.19881545  0.46648448  0.84063251    -0.02400
C1780       C  0.21151358  0.45958601  0.83447760    -0.16800
H1781       H  0.23669710  0.43943858  0.83697485     0.21200
H1782       H  0.20269290  0.44783755  0.88184648     0.19600
H1783       H  0.22254651  0.42532570  0.89505512     0.19500
H1784       H  0.21601565  0.46070447  0.82312740     0.15400
C1785       C  0.25712041  0.44891261  0.94801649     0.30800
C1786       C  0.26665589  0.44084399  0.93821456    -0.35500
C1787       C  0.25951980  0.43105589  0.92794995     0.16800
C1788       C  0.24405074  0.42922594  0.92743676     0.22600
C1789       C  0.23451218  0.43723443  0.93731312    -0.33600
C1790       C  0.24165463  0.44711694  0.94751583     0.16700
O1791       O  0.26137768  0.45907530  0.95809805    -0.25700
C1792       C  0.24848796  0.46390002  0.96414465     0.06500
C1793       C  0.23583255  0.45681892  0.95803609    -0.30500
O1794       O  0.23978764  0.41965922  0.91676991    -0.22400
C1795       C  0.25269100  0.41538975  0.91037488    -0.02400
C1796       C  0.26534223  0.42208219  0.91683320    -0.16800
H1797       H  0.27878212  0.44228696  0.93841246     0.21200
H1798       H  0.22236689  0.43601991  0.93690915     0.19600
H1799       H  0.22407814  0.45875973  0.96074393     0.19500
H1800       H  0.27705369  0.42065521  0.91367225     0.15400
C1801       C  0.63680830  0.28817102  0.03743422     0.30800
C1802       C  0.62267429  0.28562391  0.04418903    -0.35500
C1803       C  0.62168307  0.27291920  0.05372867     0.16800
C1804       C  0.63379635  0.26347126  0.05644656     0.22600
C1805       C  0.64778675  0.26582557  0.04947133    -0.33600
C1806       C  0.64876369  0.27846935  0.03996560     0.16700
O1807       O  0.64054736  0.29972900  0.02870286    -0.25700
C1808       C  0.65505833  0.29730587  0.02561649     0.06500
C1809       C  0.66071929  0.28421147  0.03225811    -0.30500
O1810       O  0.63097839  0.25339511  0.06704839    -0.22400
C1811       C  0.61678424  0.25616345  0.07104407    -0.02400
C1812       C  0.61038505  0.26818948  0.06310250    -0.16800
H1813       H  0.61328467  0.29328934  0.04254946     0.21200
H1814       H  0.65742179  0.25865177  0.05178958     0.19600
H1815       H  0.67205759  0.27968819  0.03162614     0.19500
H1816       H  0.59965297  0.27367791  0.06501710     0.15400
C1817       C  0.54934555  0.20939010  0.13952273     0.30800
C1818       C  0.56024766  0.22084487  0.14033003    -0.35500
C1819       C  0.56758497  0.22437090  0.12672466     0.16800
C1820       C  0.56433340  0.21730486  0.11315110     0.22600
C1821       C  0.55344200  0.20576744  0.11235392    -0.33600
C1822       C  0.54624764  0.20205561  0.12605150     0.16700
O1823       O  0.54120395  0.20425431  0.15091519    -0.25700
C1824       C  0.53291271  0.19332725  0.14473818     0.06500
C1825       C  0.53559978  0.19140250  0.12930814    -0.30500
O1826       O  0.57311809  0.22198276  0.10199048    -0.22400
C1827       C  0.58213474  0.23208224  0.10858574    -0.02400
C1828       C  0.57918411  0.23399780  0.12393807    -0.16800
H1829       H  0.56301086  0.22643463  0.15089147     0.21200
H1830       H  0.55098661  0.19988407  0.10187948     0.19600
H1831       H  0.53025856  0.18352091  0.12159034     0.19500
H1832       H  0.58516171  0.24103182  0.13200250     0.15400
C1833       C  0.56805111  0.25175261  0.06037251     0.30800
C1834       C  0.55824618  0.26080126  0.05176879    -0.35500
C1835       C  0.54941463  0.25319229  0.04099142     0.16800
C1836       C  0.55013295  0.23772488  0.03880703     0.22600
C1837       C  0.56001407  0.22866353  0.04736927    -0.33600
C1838       C  0.56885075  0.23627379  0.05818139     0.16700
O1839       O  0.57741910  0.25655388  0.07095151    -0.25700
C1840       C  0.58426476  0.24398665  0.07559136     0.06500
C1841       C  0.57943679  0.23101087  0.06810600    -0.30500
O1842       O  0.54068091  0.23299372  0.02822992    -0.22400
C1843       C  0.53386000  0.24561628  0.02356495    -0.02400
C1844       C  0.53889606  0.25851777  0.03108294    -0.16800
H1845       H  0.55755201  0.27293862  0.05336790     0.21200
H1846       H  0.56073624  0.21653150  0.04574234     0.19600
H1847       H  0.58335956  0.21949686  0.06960337     0.19500
H1848       H  0.53521945  0.27011406  0.02956092     0.15400
C1849       C  0.37371288  0.26852326  0.05531686     0.30800
C1850       C  0.36101303  0.26922428  0.04590649    -0.35500
C1851       C  0.35997077  0.28201962  0.03660651     0.16800
C1852       C  0.37067722  0.29338229  0.03651677     0.22600
C1853       C  0.38352682  0.29257474  0.04579807    -0.33600
C1854       C  0.38459284  0.27972343  0.05510692     0.16700
O1855       O  0.37627820  0.25819414  0.06575652    -0.25700
C1856       C  0.38912632  0.26262903  0.07211033     0.06500
C1857       C  0.39481908  0.27597931  0.06601354    -0.30500
O1858       O  0.36698433  0.30466780  0.02743056    -0.22400
C1859       C  0.35376194  0.30041466  0.02166858    -0.02400
C1860       C  0.34889830  0.28640301  0.02692382    -0.16800
H1861       H  0.35231100  0.26062593  0.04616738     0.21200
H1862       H  0.39187875  0.30151512  0.04604756     0.19600
H1863       H  0.40447834  0.28248208  0.06975825     0.19500
H1864       H  0.33855230  0.28046459  0.02422376     0.15400
C1865       C  0.45495867  0.21201854  0.13904894     0.30800
C1866       C  0.44453322  0.22388168  0.14018565    -0.35500
C1867       C  0.43687902  0.22763466  0.12683258     0.16800
C1868       C  0.43944223  0.22041253  0.11320324     0.22600
C1869       C  0.44990053  0.20850600  0.11205813    -0.33600
C1870       C  0.45739530  0.20455177  0.12551570     0.16700
O1871       O  0.46307685  0.20647362  0.15023534    -0.25700
C1872       C  0.47070024  0.19516972  0.14388511     0.06500
C1873       C  0.46762769  0.19339651  0.12851325    -0.30500
O1874       O  0.43049792  0.22538663  0.10232982    -0.22400
C1875       C  0.42207353  0.23584376  0.10912945    -0.02400
C1876       C  0.42555301  0.23768816  0.12437865    -0.16800
H1877       H  0.44230003  0.22955893  0.15082368     0.21200
H1878       H  0.45177777  0.20251508  0.10152628     0.19600
H1879       H  0.47233484  0.18519935  0.12071188     0.19500
H1880       H  0.42016631  0.24504303  0.13257198     0.15400
C1881       C  0.43517453  0.25486971  0.05923281     0.30800
C1882       C  0.44383413  0.26345613  0.04908703    -0.35500
C1883       C  0.45350979  0.25525902  0.03956755     0.16800
C1884       C  0.45458343  0.23966149  0.03991603     0.22600
C1885       C  0.44585976  0.23104535  0.05005145    -0.33600
C1886       C  0.43620944  0.23926205  0.05964416     0.16700
O1887       O  0.42538310  0.26024139  0.06910294    -0.25700
C1888       C  0.42017653  0.24793721  0.07602604     0.06500
C1889       C  0.42636396  0.23453218  0.07053787    -0.30500
O1890       O  0.46445830  0.23439466  0.03000784    -0.22400
C1891       C  0.46976139  0.24680645  0.02326032    -0.02400
C1892       C  0.46333971  0.26008918  0.02876667    -0.16800
H1893       H  0.44309996  0.27568848  0.04866725     0.21200
H1894       H  0.44657998  0.21881090  0.05046571     0.19600
H1895       H  0.42372754  0.22302129  0.07381438     0.19500
H1896       H  0.46564450  0.27163528  0.02534226     0.15400
C1897       C  0.62608342  0.27457626  0.93305400     0.30800
C1898       C  0.62493023  0.28691899  0.94307532    -0.35500
C1899       C  0.63823242  0.29095586  0.95077718     0.16800
C1900       C  0.65162511  0.28318404  0.94893303     0.22600
C1901       C  0.65275975  0.27086125  0.93899579    -0.33600
C1902       C  0.63957363  0.26700557  0.93114753     0.16700
O1903       O  0.61544549  0.26956401  0.92382282    -0.25700
C1904       C  0.62226659  0.25870712  0.91589043     0.06500
C1905       C  0.63727238  0.25664555  0.92000876    -0.30500
O1906       O  0.66265208  0.28878019  0.95722323    -0.22400
C1907       C  0.65635712  0.30042157  0.96439766    -0.02400
C1908       C  0.64116468  0.30236337  0.96082030    -0.16800
H1909       H  0.61452066  0.29317339  0.94446100     0.21200
H1910       H  0.66329416  0.26491034  0.93724375     0.19600
H1911       H  0.64548850  0.24907984  0.91499435     0.19500
H1912       H  0.63338287  0.31072767  0.96521814     0.15400
C1913       C  0.57108119  0.22690681  0.86359174     0.30800
C1914       C  0.56269866  0.22608487  0.85012191    -0.35500
C1915       C  0.55281546  0.21374479  0.84883759     0.16800
C1916       C  0.55129796  0.20290382  0.86000583     0.22600
C1917       C  0.55961487  0.20379328  0.87354870    -0.33600
C1918       C  0.56943635  0.21621553  0.87488388     0.16700
O1919       O  0.58162621  0.23695730  0.86673551    -0.25700
C1920       C  0.58660731  0.23288348  0.88036713     0.06500
C1921       C  0.57948860  0.21999683  0.88597383    -0.30500
O1922       O  0.54156189  0.19219990  0.85627838    -0.22400
C1923       C  0.53676736  0.19626979  0.84255429    -0.02400
C1924       C  0.54338473  0.20959736  0.83737913    -0.16800
H1925       H  0.56398588  0.23435032  0.84115618     0.21200
H1926       H  0.55863337  0.19530522  0.88234176     0.19600
H1927       H  0.58205921  0.21371777  0.89618086     0.19500
H1928       H  0.54149709  0.21538394  0.82672901     0.15400
C1929       C  0.57269550  0.23890867  0.92707931     0.30800
C1930       C  0.56257802  0.22995719  0.93537862    -0.35500
C1931       C  0.55232618  0.23780892  0.94456348     0.16800
C1932       C  0.55202819  0.25341367  0.94554493     0.22600
C1933       C  0.56218205  0.26239309  0.93724384    -0.33600
C1934       C  0.57246544  0.25452711  0.92804601     0.16700
O1935       O  0.58301393  0.23389562  0.91758359    -0.25700
C1936       C  0.58953463  0.24644128  0.91247421     0.06500
C1937       C  0.58344939  0.25964926  0.91851030    -0.30500
O1938       O  0.54147611  0.25833766  0.95487976    -0.22400
C1939       C  0.53494293  0.24571124  0.95991177    -0.02400
C1940       C  0.54123709  0.23260686  0.95387159    -0.16800
H1941       H  0.56264944  0.21771640  0.93466264     0.21200
H1942       H  0.56204620  0.27463858  0.93788022     0.19600
H1943       H  0.58640264  0.27126193  0.91593552     0.19500
H1944       H  0.53815303  0.22095312  0.95610710     0.15400
C1945       C  0.37148790  0.27263745  0.92401077     0.30800
C1946       C  0.35786056  0.27440672  0.93183749    -0.35500
C1947       C  0.35720062  0.28660100  0.94195183     0.16800
C1948       C  0.36906554  0.29648937  0.94417701     0.22600
C1949       C  0.38274964  0.29468018  0.93635356    -0.33600
C1950       C  0.38347981  0.28233699  0.92633808     0.16700
O1951       O  0.37424782  0.26248654  0.91345095    -0.25700
C1952       C  0.38830935  0.26546855  0.90914312     0.06500
C1953       C  0.39462170  0.27774595  0.91673467    -0.30500
O1954       O  0.36593227  0.30704336  0.95430855    -0.22400
C1955       C  0.35191198  0.30377232  0.95862280    -0.02400
C1956       C  0.34592743  0.29120013  0.95128111    -0.16800
H1957       H  0.34838916  0.26686991  0.93007252     0.21200
H1958       H  0.39214034  0.30235379  0.93793964     0.19600
H1959       H  0.40532567  0.28323692  0.91471373     0.19500
H1960       H  0.33494474  0.28605090  0.95280526     0.15400
C1961       C  0.43994038  0.22238255  0.87075862     0.30800
C1962       C  0.45014488  0.21030451  0.87247092    -0.35500
C1963       C  0.45866285  0.20654380  0.85956882     0.16800
C1964       C  0.45734457  0.21428742  0.84603284     0.22600
C1965       C  0.44710402  0.22623206  0.84429634    -0.33600
C1966       C  0.43849012  0.22983634  0.85707795     0.16700
O1967       O  0.43043484  0.22751242  0.88108961    -0.25700
C1968       C  0.42277990  0.23826622  0.87381271     0.06500
C1969       C  0.42728639  0.24014895  0.85886067    -0.30500
O1970       O  0.46638198  0.20899942  0.83545246    -0.22400
C1971       C  0.47352744  0.19759997  0.84218359    -0.02400
C1972       C  0.46916830  0.19548081  0.85720328    -0.16800
H1973       H  0.45121041  0.20415020  0.88302563     0.21200
H1974       H  0.44580094  0.23217509  0.83364477     0.19600
H1975       H  0.42271122  0.24780112  0.85044052     0.19500
H1976       H  0.47322252  0.18711138  0.86519269     0.15400
C1977       C  0.43416120  0.24230093  0.92305485     0.30800
C1978       C  0.44142314  0.23301940  0.93375835    -0.35500
C1979       C  0.45271177  0.23998450  0.94251988     0.16800
C1980       C  0.45654061  0.25505627  0.94090428     0.22600
C1981       C  0.44940583  0.26428411  0.93010272    -0.33600
C1982       C  0.43816164  0.25732974  0.92133198     0.16700
O1983       O  0.42315046  0.23823712  0.91380519    -0.25700
C1984       C  0.42009236  0.25087292  0.90617142     0.06500
C1985       C  0.42915671  0.26304663  0.91020444    -0.30500
O1986       O  0.46719117  0.25931431  0.95045876    -0.22400
C1987       C  0.47034106  0.24679063  0.95825552    -0.02400
C1988       C  0.46170279  0.23438969  0.95376948    -0.16800
H1989       H  0.43842242  0.22122435  0.93521665     0.21200
H1990       H  0.45234206  0.27610392  0.92870957     0.19600
H1991       H  0.42913864  0.27438998  0.90556119     0.19500
H1992       H  0.46191720  0.22297922  0.95825909     0.15400
C1993       C  0.63277644  0.05497654  0.72740581     0.30800
C1994       C  0.64660204  0.04772618  0.72474757    -0.35500
C1995       C  0.64680491  0.03719906  0.71286624     0.16800
C1996       C  0.63429014  0.03404013  0.70410688     0.22600
C1997       C  0.62035430  0.04112688  0.70694666    -0.33600
C1998       C  0.62012002  0.05161336  0.71894033     0.16700
O1999       O  0.63045079  0.06608523  0.73708708    -0.25700
C2000       C  0.61602975  0.06976855  0.73507945     0.06500
C2001       C  0.60899842  0.06109916  0.72392690    -0.30500
O2002       O  0.63724630  0.02421065  0.69320170    -0.22400
C2003       C  0.65181798  0.02098925  0.69510253    -0.02400
C2004       C  0.65830425  0.02870231  0.70720663    -0.16800
H2005       H  0.65662168  0.05041745  0.73123252     0.21200
H2006       H  0.61048307  0.03887988  0.70007602     0.19600
H2007       H  0.59779445  0.06239554  0.71925983     0.19500
H2008       H  0.66986070  0.02821177  0.71116041     0.15400
C2009       C  0.56741286  0.12552299  0.76553288     0.30800
C2010       C  0.56080420  0.13988366  0.76704840    -0.35500
C2011       C  0.55051961  0.14155789  0.77898980     0.16800
C2012       C  0.54702639  0.12993217  0.78884317     0.22600
C2013       C  0.55347305  0.11547642  0.78717453    -0.33600
C2014       C  0.56368656  0.11375844  0.77512344     0.16700
O2015       O  0.57819508  0.12185749  0.75594556    -0.25700
C2016       C  0.58125421  0.10745078  0.75916136     0.06500
C2017       C  0.57254519  0.10178902  0.77101032    -0.30500
O2018       O  0.53749604  0.13419276  0.79952091    -0.22400
C2019       C  0.53479991  0.14870422  0.79638958    -0.02400
C2020       C  0.54255216  0.15387176  0.78369999    -0.16800
H2021       H  0.56376785  0.14921102  0.75966218     0.21200
H2022       H  0.55093759  0.10630712  0.79490812     0.19600
H2023       H  0.57344553  0.09094983  0.77662836     0.19500
H2024       H  0.54240063  0.16509155  0.77874441     0.15400
C2025       C  0.54922533  0.03775240  0.75352302     0.30800
C2026       C  0.56030641  0.04503328  0.76226788    -0.35500
C2027       C  0.56866942  0.05632891  0.75486652     0.16800
C2028       C  0.56621568  0.06028299  0.73991220     0.22600
C2029       C  0.55526861  0.05287935  0.73112908    -0.33600
C2030       C  0.54699668  0.04151029  0.73849884     0.16700
O2031       O  0.54001597  0.02694873  0.75816195    -0.25700
C2032       C  0.53188369  0.02366063  0.74590284     0.06500
C2033       C  0.53578014  0.03232714  0.73332873    -0.30500
O2034       O  0.57521904  0.07125790  0.73531310    -0.22400
C2035       C  0.58354979  0.07427195  0.74747009    -0.02400
C2036       C  0.58010625  0.06531668  0.75993550    -0.16800
H2037       H  0.56226266  0.04210628  0.77401807     0.21200
H2038       H  0.55333487  0.05578135  0.71936855     0.19600
H2039       H  0.53093874  0.03199417  0.72206679     0.19500
H2040       H  0.58531558  0.06541602  0.77102999     0.15400
C2041       C  0.36665175  0.04035401  0.70667170     0.30800
C2042       C  0.38062906  0.04771650  0.70841753    -0.35500
C2043       C  0.38196955  0.05732674  0.72106617     0.16800
C2044       C  0.37027660  0.05965960  0.73112799     0.22600
C2045       C  0.35643182  0.05217113  0.72950501    -0.33600
C2046       C  0.35514783  0.04250719  0.71698750     0.16700
O2047       O  0.36275761  0.03105637  0.69558595    -0.25700
C2048       C  0.34860991  0.02719038  0.69895033     0.06500
C2049       C  0.34333452  0.03397264  0.71214714    -0.30500
O2050       O  0.37338244  0.07014645  0.74127037    -0.22400
C2051       C  0.38737795  0.07442823  0.73794324    -0.02400
C2052       C  0.39334165  0.06679782  0.72548639    -0.16800
H2053       H  0.38970760  0.04627561  0.70034523     0.21200
H2054       H  0.34715990  0.05404453  0.73726645     0.19600
H2055       H  0.33235773  0.03278612  0.71739828     0.19500
H2056       H  0.40392577  0.06883748  0.71974288     0.15400
C2057       C  0.45987155  0.13219351  0.78914667     0.30800
C2058       C  0.45346029  0.11780882  0.78679038    -0.35500
C2059       C  0.44220185  0.11693611  0.77560601     0.16800
C2060       C  0.43744191  0.12943699  0.76752023     0.22600
C2061       C  0.44401041  0.14373860  0.76968709    -0.33600
C2062       C  0.45538331  0.14455853  0.78069813     0.16700
O2063       O  0.47036962  0.13567229  0.79918433    -0.25700
C2064       C  0.47274009  0.15041450  0.79700483     0.06500
C2065       C  0.46377077  0.15652762  0.78560005    -0.30500
O2066       O  0.42593672  0.12639030  0.75858071    -0.22400
C2067       C  0.42342843  0.11167070  0.76066572    -0.02400
C2068       C  0.43326480  0.10514312  0.77110400    -0.16800
H2069       H  0.45685193  0.10803598  0.79337452     0.21200
H2070       H  0.44030140  0.15360543  0.76342272     0.19600
H2071       H  0.46341750  0.16811848  0.78160367     0.19500
H2072       H  0.43314843  0.09371393  0.77553966     0.15400
C2073       C  0.45494951  0.04288023  0.74065639     0.30800
C2074       C  0.44907458  0.05562434  0.73318253    -0.35500
C2075       C  0.43784045  0.06367778  0.74096772     0.16800
C2076       C  0.43253999  0.05932364  0.75503894     0.22600
C2077       C  0.43848805  0.04664598  0.76255387    -0.33600
C2078       C  0.44990189  0.03875504  0.75487294     0.16700
O2079       O  0.46572544  0.03388458  0.73559548    -0.25700
C2080       C  0.46773786  0.02399881  0.74680516     0.06500
C2081       C  0.45821002  0.02647995  0.75908547    -0.30500
O2082       O  0.42164089  0.06819646  0.76002156    -0.22400
C2083       C  0.42015474  0.07844339  0.74908353    -0.02400
C2084       C  0.42991058  0.07628848  0.73697191    -0.16800
H2085       H  0.45304932  0.05907232  0.72210619     0.21200
H2086       H  0.43453501  0.04321061  0.77364153     0.19600
H2087       H  0.45758024  0.02019528  0.76960449     0.19500
H2088       H  0.43067801  0.08279113  0.72660160     0.15400
C2089       C  0.63224753  0.92544144  0.72697503     0.30800
C2090       C  0.64588912  0.93313024  0.72475967    -0.35500
C2091       C  0.64645404  0.94278599  0.71219318     0.16800
C2092       C  0.63446849  0.94472379  0.70238353     0.22600
C2093       C  0.62073702  0.93710999  0.70468844    -0.33600
C2094       C  0.62011356  0.92753149  0.71738451     0.16700
O2095       O  0.62958654  0.91523981  0.73751125    -0.25700
C2096       C  0.61545743  0.91092596  0.73488246     0.06500
C2097       C  0.60896401  0.91818315  0.72248792    -0.30500
O2098       O  0.63760978  0.95424401  0.69127782    -0.22400
C2099       C  0.65176324  0.95844879  0.69409799    -0.02400
C2100       C  0.65780850  0.95168452  0.70696757    -0.16800
H2101       H  0.65547116  0.93153508  0.73220742     0.21200
H2102       H  0.61125987  0.93846546  0.69706596     0.19600
H2103       H  0.59806320  0.91614891  0.71736557     0.19500
H2104       H  0.66893046  0.95320402  0.71182015     0.15400
C2105       C  0.56555273  0.86016438  0.77100456     0.30800
C2106       C  0.55829284  0.84635258  0.77385262    -0.35500
C2107       C  0.54749787  0.84648552  0.78543789     0.16800
C2108       C  0.54415466  0.85928169  0.79378204     0.22600
C2109       C  0.55136837  0.87314611  0.79085486    -0.33600
C2110       C  0.56205728  0.87305492  0.77911198     0.16700
O2111       O  0.57655071  0.86237703  0.76123330    -0.25700
C2112       C  0.58001573  0.87695250  0.76284142     0.06500
C2113       C  0.57136504  0.88417027  0.77386137    -0.30500
O2114       O  0.53370237  0.85676012  0.80413346    -0.22400
C2115       C  0.53026327  0.84219403  0.80228078    -0.02400
C2116       C  0.53849315  0.83524187  0.79081492    -0.16800
H2117       H  0.56098255  0.83617267  0.76756692     0.21200
H2118       H  0.54887782  0.88326513  0.79731871     0.19600
H2119       H  0.57244605  0.89552124  0.77826545     0.19500
H2120       H  0.53782377  0.82362625  0.78693271     0.15400
C2121       C  0.56638240  0.92305869  0.73986124     0.30800
C2122       C  0.55549119  0.93029049  0.73081960    -0.35500
C2123       C  0.54718375  0.94186126  0.73787487     0.16800
C2124       C  0.54936460  0.94591606  0.75282839     0.22600
C2125       C  0.56040934  0.93887674  0.76177860    -0.33600
C2126       C  0.56879374  0.92742744  0.75470102     0.16700
O2127       O  0.57519286  0.91172677  0.73573266    -0.25700
C2128       C  0.58331790  0.90891833  0.74809606     0.06500
C2129       C  0.58003554  0.91844936  0.76015632    -0.30500
O2130       O  0.54007885  0.95669665  0.75727022    -0.22400
C2131       C  0.53192261  0.95973571  0.74497762    -0.02400
C2132       C  0.53588230  0.95090424  0.73252559    -0.16800
H2133       H  0.55355076  0.92704482  0.71915190     0.21200
H2134       H  0.56225529  0.94202979  0.77348830     0.19600
H2135       H  0.58511537  0.91862139  0.77131006     0.19500
H2136       H  0.53099365  0.95098995  0.72128124     0.15400
C2137       C  0.37776670  0.93025720  0.71788582     0.30800
C2138       C  0.37857544  0.94156072  0.70673813    -0.35500
C2139       C  0.36520811  0.94964208  0.70405276     0.16800
C2140       C  0.35203233  0.94698019  0.71197073     0.22600
C2141       C  0.35120750  0.93563759  0.72305378    -0.33600
C2142       C  0.36449544  0.92740657  0.72555973     0.16700
O2143       O  0.38867577  0.92084855  0.72174308    -0.25700
C2144       C  0.38226808  0.91181777  0.73193996     0.06500
C2145       C  0.36722906  0.91534333  0.73471112    -0.30500
O2146       O  0.34090072  0.95589213  0.70764257    -0.22400
C2147       C  0.34697667  0.96423806  0.69668268    -0.02400
C2148       C  0.36205244  0.96082692  0.69392396    -0.16800
H2149       H  0.38881163  0.94370308  0.70040987     0.21200
H2150       H  0.34086558  0.93322594  0.72910936     0.19600
H2151       H  0.35936590  0.90958239  0.74212090     0.19500
H2152       H  0.36959247  0.96594684  0.68574710     0.15400
C2153       C  0.43703702  0.87447935  0.77201676     0.30800
C2154       C  0.44686930  0.87615898  0.78442882    -0.35500
C2155       C  0.45472026  0.86305192  0.78890231     0.16800
C2156       C  0.45319039  0.84938540  0.78144478     0.22600
C2157       C  0.44350058  0.84774584  0.76903597    -0.33600
C2158       C  0.43549317  0.86070763  0.76476858     0.16700
O2159       O  0.42748987  0.88473742  0.76681149    -0.25700
C2160       C  0.41975798  0.87735581  0.75617450     0.06500
C2161       C  0.42429444  0.86240245  0.75442972    -0.30500
O2162       O  0.46120868  0.83849832  0.78765426    -0.22400
C2163       C  0.46790683  0.84514267  0.79937036    -0.02400
C2164       C  0.46431615  0.86044996  0.80075204    -0.16800
H2165       H  0.44787987  0.88675595  0.79051551     0.21200
H2166       H  0.44190822  0.83695152  0.76343554     0.19600
H2167       H  0.41942286  0.85379169  0.74718651     0.19500
H2168       H  0.46819906  0.86843373  0.80920838     0.15400
C2169       C  0.43128983  0.92481234  0.75137451     0.30800
C2170       C  0.44103205  0.93339790  0.76049021    -0.35500
C2171       C  0.45061231  0.94345007  0.75283112     0.16800
C2172       C  0.45064275  0.94497263  0.73725918     0.22600
C2173       C  0.44085380  0.93640894  0.72812319    -0.33600
C2174       C  0.43124293  0.92635446  0.73579108     0.16700
O2175       O  0.42161240  0.91453049  0.75616165    -0.25700
C2176       C  0.41521356  0.90953214  0.74349007     0.06500
C2177       C  0.42077753  0.91638077  0.73044837    -0.30500
O2178       O  0.46067277  0.95496187  0.73251399    -0.22400
C2179       C  0.46712952  0.95988913  0.74522589    -0.02400
C2180       C  0.46129940  0.95312863  0.75820295    -0.16800
H2181       H  0.44120338  0.93224223  0.77270139     0.21200
H2182       H  0.44079323  0.93744915  0.71589984     0.19600
H2183       H  0.41781194  0.91407265  0.71877711     0.19500
H2184       H  0.46450649  0.95505095  0.76988562     0.15400
C2185       C  0.62482767  0.69375230  0.04897130     0.30800
C2186       C  0.61161110  0.69406449  0.05775940    -0.35500
C2187       C  0.60976617  0.70675732  0.06718180     0.16800
C2188       C  0.62027678  0.71826661  0.06799699     0.22600
C2189       C  0.63340186  0.71802721  0.05912258    -0.33600
C2190       C  0.63521142  0.70538477  0.04968044     0.16700
O2191       O  0.62898384  0.68288705  0.03955911    -0.25700
C2192       C  0.64219733  0.68765142  0.03418074     0.06500
C2193       C  0.64661514  0.70157712  0.04009380    -0.30500
O2194       O  0.61696973  0.72834792  0.07850144    -0.22400
C2195       C  0.60400921  0.72343973  0.08430111    -0.02400
C2196       C  0.59900592  0.71002040  0.07773463    -0.16800
H2197       H  0.60348057  0.68491853  0.05748739     0.21200
H2198       H  0.64180958  0.72689857  0.05981861     0.19600
H2199       H  0.65675305  0.70797015  0.03764853     0.19500
H2200       H  0.58955615  0.70303344  0.08107743     0.15400
C2201       C  0.53801768  0.77539080  0.15040398     0.30800
C2202       C  0.54825941  0.76339527  0.15205995    -0.35500
C2203       C  0.55580621  0.75884543  0.13885867     0.16800
C2204       C  0.55332105  0.76544053  0.12489300     0.22600
C2205       C  0.54309001  0.77750027  0.12324597    -0.33600
C2206       C  0.53570575  0.78223527  0.13652538     0.16700
O2207       O  0.52996523  0.78161644  0.16132145    -0.25700
C2208       C  0.52252053  0.79274067  0.15441590     0.06500
C2209       C  0.52566351  0.79368842  0.13898157    -0.30500
O2210       O  0.56207893  0.75972082  0.11419644    -0.22400
C2211       C  0.57034192  0.74942381  0.12146892    -0.02400
C2212       C  0.56690803  0.74842624  0.13682293    -0.16800
H2213       H  0.55041881  0.75817173  0.16294645     0.21200
H2214       H  0.54126627  0.78301902  0.11244839     0.19600
H2215       H  0.52110991  0.80157679  0.13077694     0.19500
H2216       H  0.57218510  0.74136742  0.14534457     0.15400
C2217       C  0.53815725  0.73272076  0.05180830     0.30800
C2218       C  0.54538910  0.72340685  0.06244159    -0.35500
C2219       C  0.55562606  0.73062207  0.07217028     0.16800
C2220       C  0.55861584  0.74597201  0.07149978     0.22600
C2221       C  0.55132398  0.75531105  0.06089024    -0.33600
C2222       C  0.54103755  0.74808069  0.05117316     0.16700
O2223       O  0.52813020  0.72833328  0.04166140    -0.25700
C2224       C  0.52446713  0.74105577  0.03446000     0.06500
C2225       C  0.53215430  0.75370082  0.03989071    -0.30500
O2226       O  0.56888361  0.75022985  0.08148521    -0.22400
C2227       C  0.57242124  0.73740653  0.08856525    -0.02400
C2228       C  0.56450962  0.72488566  0.08335082    -0.16800
H2229       H  0.54322127  0.71135419  0.06305641     0.21200
H2230       H  0.55355074  0.76735221  0.06021964     0.19600
H2231       H  0.53126046  0.76533568  0.03611067     0.19500
H2232       H  0.56529562  0.71327091  0.08717327     0.15400
C2233       C  0.34907512  0.70975359  0.04617143     0.30800
C2234       C  0.34797500  0.72186545  0.05633530    -0.35500
C2235       C  0.36099789  0.72511321  0.06466806     0.16800
C2236       C  0.37431149  0.71715819  0.06301280     0.22600
C2237       C  0.37543341  0.70502438  0.05276876    -0.33600
C2238       C  0.36228187  0.70160620  0.04456597     0.16700
O2239       O  0.33811961  0.70461084  0.03753486    -0.25700
C2240       C  0.34428423  0.69291762  0.03036000     0.06500
C2241       C  0.35930538  0.69045355  0.03428672    -0.30500
O2242       O  0.38473201  0.72152710  0.07276464    -0.22400
C2243       C  0.37792091  0.73233955  0.08074111    -0.02400
C2244       C  0.36317312  0.73504176  0.07618791    -0.16800
H2245       H  0.33755638  0.72805978  0.05793414     0.21200
H2246       H  0.38566996  0.69843976  0.05161915     0.19600
H2247       H  0.36691564  0.68184151  0.03006616     0.19500
H2248       H  0.35500533  0.74265768  0.08120598     0.15400
C2249       C  0.44518321  0.77893288  0.14919143     0.30800
C2250       C  0.43461236  0.76718373  0.15010094    -0.35500
C2251       C  0.42754457  0.76321027  0.13647197     0.16800
C2252       C  0.43076394  0.77013441  0.12281954     0.22600
C2253       C  0.44139240  0.78186629  0.12189870    -0.33600
C2254       C  0.44828300  0.78602570  0.13559035     0.16700
O2255       O  0.45291813  0.78465948  0.16058483    -0.25700
C2256       C  0.46092129  0.79568635  0.15422041     0.06500
C2257       C  0.45848502  0.79709066  0.13871229    -0.30500
O2258       O  0.42201838  0.76531382  0.11172199    -0.22400
C2259       C  0.41306043  0.75523759  0.11838669    -0.02400
C2260       C  0.41604388  0.75344887  0.13375825    -0.16800
H2261       H  0.43180044  0.76179608  0.16075328     0.21200
H2262       H  0.44376872  0.78765412  0.11135628     0.19600
H2263       H  0.46369085  0.80493426  0.13086824     0.19500
H2264       H  0.41004086  0.74654950  0.14191539     0.15400
C2265       C  0.42468379  0.73637279  0.06814978     0.30800
C2266       C  0.43307836  0.72726224  0.05821380    -0.35500
C2267       C  0.44318993  0.73489842  0.04866878     0.16800
C2268       C  0.44483352  0.75044971  0.04877460     0.22600
C2269       C  0.43632802  0.75958392  0.05862070    -0.33600
C2270       C  0.42632872  0.75193459  0.06829694     0.16700
O2271       O  0.41475668  0.73157074  0.07818203    -0.25700
C2272       C  0.41011625  0.74419989  0.08493788     0.06500
C2273       C  0.41680255  0.75724868  0.07921092    -0.30500
O2274       O  0.45520868  0.75516381  0.03913907    -0.22400
C2275       C  0.46030575  0.74246524  0.03280855    -0.02400
C2276       C  0.45319756  0.72950798  0.03827008    -0.16800
H2277       H  0.43194552  0.71505424  0.05807804     0.21200
H2278       H  0.43758551  0.77177693  0.05887679     0.19600
H2279       H  0.41475386  0.76889567  0.08243614     0.19500
H2280       H  0.45525530  0.71782288  0.03516907     0.15400
C2281       C  0.63759406  0.70482527  0.95455404     0.30800
C2282       C  0.63852459  0.71699048  0.94439393    -0.35500
C2283       C  0.62552189  0.71997087  0.93586877     0.16800
C2284       C  0.61239109  0.71168119  0.93728259     0.22600
C2285       C  0.61149847  0.69938747  0.94739383    -0.33600
C2286       C  0.62460152  0.69629556  0.95585325     0.16700
O2287       O  0.64846315  0.70008506  0.96358007    -0.25700
C2288       C  0.64246412  0.68825271  0.97070462     0.06500
C2289       C  0.62764319  0.68531223  0.96632398    -0.30500
O2290       O  0.60176205  0.71626098  0.92779996    -0.22400
C2291       C  0.60824660  0.72759220  0.92024872    -0.02400
C2292       C  0.62302713  0.73030516  0.92474405    -0.16800
H2293       H  0.64874315  0.72357619  0.94310380     0.21200
H2294       H  0.60138547  0.69260031  0.94844689     0.19600
H2295       H  0.62018394  0.67649475  0.97038373     0.19500
H2296       H  0.63092610  0.73843479  0.92011782     0.15400
C2297       C  0.55872125  0.77344734  0.88049360     0.30800
C2298       C  0.55090278  0.78730431  0.88023829    -0.35500
C2299       C  0.54154375  0.78977299  0.86762274     0.16800
C2300       C  0.53999864  0.77929894  0.85610679     0.22600
C2301       C  0.54779953  0.76549279  0.85635512    -0.33600
C2302       C  0.55714204  0.76305011  0.86892089     0.16700
O2303       O  0.56870276  0.76910626  0.89072318    -0.25700
C2304       C  0.57344099  0.75571102  0.88568957     0.06500
C2305       C  0.56671793  0.75145288  0.87211407    -0.30500
O2306       O  0.53082932  0.78393445  0.84532456    -0.22400
C2307       C  0.52640492  0.79757422  0.84992885    -0.02400
C2308       C  0.53271163  0.80184144  0.86374008    -0.16800
H2309       H  0.55222108  0.79566587  0.88911044     0.21200
H2310       H  0.54682370  0.75731972  0.84726191     0.19600
H2311       H  0.56908332  0.74155632  0.86526786     0.19500
H2312       H  0.53103472  0.81227149  0.86996597     0.15400
C2313       C  0.56208823  0.73516030  0.93524005     0.30800
C2314       C  0.55385293  0.72639797  0.94560647    -0.35500
C2315       C  0.54322605  0.73422464  0.95440619     0.16800
C2316       C  0.54092726  0.74964756  0.95321899     0.22600
C2317       C  0.54917892  0.75842723  0.94284585    -0.33600
C2318       C  0.55972879  0.75057123  0.93394411     0.16700
O2319       O  0.57244595  0.73012573  0.92576214    -0.25700
C2320       C  0.57668672  0.74245455  0.91822269     0.06500
C2321       C  0.56925243  0.75553429  0.92288849    -0.30500
O2322       O  0.53039575  0.75459188  0.96258260    -0.22400
C2323       C  0.52584916  0.74214634  0.96979326    -0.02400
C2324       C  0.53343206  0.72915192  0.96514476    -0.16800
H2325       H  0.55554049  0.71430026  0.94666333     0.21200
H2326       H  0.54742186  0.77051000  0.94171547     0.19600
H2327       H  0.57081412  0.76703189  0.91898334     0.19500
H2328       H  0.53194315  0.71764825  0.96912626     0.15400
C2329       C  0.37397902  0.72032460  0.93621553     0.30800
C2330       C  0.37515367  0.70824643  0.94650837    -0.35500
C2331       C  0.36182462  0.70427834  0.95413790     0.16800
C2332       C  0.34835071  0.71183908  0.95197406     0.22600
C2333       C  0.34716635  0.72384163  0.94166304    -0.33600
C2334       C  0.36041056  0.72764659  0.93389739     0.16700
O2335       O  0.38478880  0.72549708  0.92731304    -0.25700
C2336       C  0.37799774  0.73619410  0.91915820     0.06500
C2337       C  0.36283184  0.73797477  0.92277270    -0.30500
O2338       O  0.33731757  0.70630704  0.96030143    -0.22400
C2339       C  0.34373951  0.69492664  0.96777014    -0.02400
C2340       C  0.35896490  0.69309398  0.96438010    -0.16800
H2341       H  0.38563905  0.70219603  0.94823679     0.21200
H2342       H  0.33659445  0.72964902  0.93965435     0.19600
H2343       H  0.35467372  0.74552264  0.91763090     0.19500
H2344       H  0.36678686  0.68484184  0.96893195     0.15400
C2345       C  0.42969775  0.76961654  0.86851878     0.30800
C2346       C  0.43684505  0.77168051  0.85453147    -0.35500
C2347       C  0.44722430  0.78358470  0.85377080     0.16800
C2348       C  0.45039051  0.79292549  0.86590427     0.22600
C2349       C  0.44330329  0.79076050  0.88001724    -0.33600
C2350       C  0.43293091  0.77871765  0.88081750     0.16700
O2351       O  0.41877100  0.75993105  0.87126967    -0.25700
C2352       C  0.41504627  0.76256644  0.88561345     0.06500
C2353       C  0.42348752  0.77415805  0.89218433    -0.30500
O2354       O  0.46049650  0.80340950  0.86249614    -0.22400
C2355       C  0.46382447  0.80061748  0.84802679    -0.02400
C2356       C  0.45587970  0.78843494  0.84205343    -0.16800
H2357       H  0.43426459  0.76466042  0.84481247     0.21200
H2358       H  0.44556333  0.79805108  0.88961463     0.19600
H2359       H  0.42200716  0.77937281  0.90317401     0.19500
H2360       H  0.45656376  0.78370263  0.83075364     0.15400
C2361       C  0.42660176  0.75377321  0.93372717     0.30800
C2362       C  0.43573606  0.76192991  0.94379067    -0.35500
C2363       C  0.44534224  0.75329902  0.95297350     0.16800
C2364       C  0.44596861  0.73768408  0.95235985     0.22600
C2365       C  0.43680411  0.72948948  0.94226054    -0.33600
C2366       C  0.42715818  0.73814339  0.93304102     0.16700
O2367       O  0.41683740  0.75961995  0.92410727    -0.25700
C2368       C  0.41103975  0.74759731  0.91719283     0.06500
C2369       C  0.41700666  0.73391029  0.92221086    -0.30500
O2370       O  0.45584588  0.73198356  0.96203087    -0.22400
C2371       C  0.46159221  0.74414388  0.96886576    -0.02400
C2372       C  0.45545716  0.75768141  0.96367654    -0.16800
H2373       H  0.43538839  0.77417377  0.94440452     0.21200
H2374       H  0.43717134  0.71724842  0.94162935     0.19600
H2375       H  0.41432487  0.72258546  0.91836234     0.19500
H2376       H  0.45808264  0.76910444  0.96728692     0.15400
C2377       C  0.63091249  0.05798319  0.26221809     0.30800
C2378       C  0.64470871  0.05067522  0.26475499    -0.35500
C2379       C  0.64510869  0.04065570  0.27704046     0.16800
C2380       C  0.63281322  0.03801618  0.28627531     0.22600
C2381       C  0.61889843  0.04512320  0.28354809    -0.33600
C2382       C  0.61846197  0.05509446  0.27116122     0.16700
O2383       O  0.62845304  0.06877692  0.25223318    -0.25700
C2384       C  0.61415240  0.07267854  0.25455933     0.06500
C2385       C  0.60732585  0.06449692  0.26616607    -0.30500
O2386       O  0.63594028  0.02858452  0.29745416    -0.22400
C2387       C  0.65039168  0.02511896  0.29524537    -0.02400
C2388       C  0.65663960  0.03224327  0.28268112    -0.16800
H2389       H  0.65457292  0.05297465  0.25789020     0.21200
H2390       H  0.60920118  0.04328026  0.29077825     0.19600
H2391       H  0.59625632  0.06610141  0.27106878     0.19500
H2392       H  0.66805011  0.03137832  0.27838015     0.15400
C2393       C  0.54259347  0.12933293  0.20174749     0.30800
C2394       C  0.54873346  0.11497530  0.20482582    -0.35500
C2395       C  0.55970844  0.11442895  0.21630539     0.16800
C2396       C  0.56439873  0.12717264  0.22405560     0.22600
C2397       C  0.55803284  0.14141995  0.22123201    -0.33600
C2398       C  0.54701531  0.14193735  0.20987633     0.16700
O2399       O  0.53264346  0.13263561  0.19109986    -0.25700
C2400       C  0.53061628  0.14751265  0.19257343     0.06500
C2401       C  0.53919694  0.15386354  0.20412724    -0.30500
O2402       O  0.57582892  0.12442879  0.23316798    -0.22400
C2403       C  0.57835833  0.10967694  0.23151758    -0.02400
C2404       C  0.56860797  0.10280885  0.22122358    -0.16800
H2405       H  0.54549074  0.10502160  0.19844677     0.21200
H2406       H  0.56176199  0.15149231  0.22714575     0.19600
H2407       H  0.53975072  0.16561192  0.20760965     0.19500
H2408       H  0.56883158  0.09128629  0.21705316     0.15400
C2409       C  0.54283130  0.04503860  0.25014726     0.30800
C2410       C  0.54936190  0.05735650  0.25778748    -0.35500
C2411       C  0.56197506  0.06394515  0.25079973     0.16800
C2412       C  0.56795394  0.05856852  0.23736936     0.22600
C2413       C  0.56135522  0.04632650  0.22968581    -0.33600
C2414       C  0.54855362  0.03995126  0.23651417     0.16700
O2415       O  0.53090388  0.03726309  0.25456145    -0.25700
C2416       C  0.52881308  0.02724120  0.24348365     0.06500
C2417       C  0.53942841  0.02840279  0.23193922    -0.30500
O2418       O  0.57986418  0.06633855  0.23291845    -0.45200
C2419       C  0.58135930  0.07688766  0.24355564    -0.02400
C2420       C  0.57056749  0.07606663  0.25492497    -0.16800
H2421       H  0.54483808  0.06159550  0.26836191     0.21200
H2422       H  0.56580089  0.04216474  0.21904879     0.19600
H2423       H  0.54038585  0.02158697  0.22178578     0.19500
H2424       H  0.56935480  0.08327264  0.26477103     0.15400
C2425       C  0.36332036  0.06376810  0.26019360     0.30800
C2426       C  0.34935644  0.05847071  0.26546131    -0.35500
C2427       C  0.34985973  0.04864952  0.27792970     0.16800
C2428       C  0.36317506  0.04435974  0.28482024     0.22600
C2429       C  0.37718326  0.04944464  0.27935180    -0.33600
C2430       C  0.37668765  0.05921390  0.26678869     0.16700
O2431       O  0.36533944  0.07415372  0.24967322    -0.25700
C2432       C  0.38021978  0.07616481  0.24927713     0.06500
C2433       C  0.38787825  0.06706050  0.25964159    -0.30500
O2434       O  0.36093643  0.03533045  0.29654818    -0.22400
C2435       C  0.34599744  0.03375453  0.29707635    -0.02400
C2436       C  0.33854984  0.04175264  0.28573718    -0.16800
H2437       H  0.33880279  0.06209025  0.26044680     0.21200
H2438       H  0.38770622  0.04627050  0.28471300     0.19600
H2439       H  0.39972345  0.06719180  0.26255788     0.19500
H2440       H  0.32654659  0.04227446  0.28350253     0.15400
C2441       C  0.43198692  0.12892449  0.21927817     0.30800
C2442       C  0.43946154  0.14285246  0.21778112    -0.35500
C2443       C  0.45083294  0.14345190  0.20676751     0.16800
C2444       C  0.45452047  0.13122210  0.19775039     0.22600
C2445       C  0.44722356  0.11719280  0.19944736    -0.33600
C2446       C  0.43593682  0.11654428  0.21058737     0.16700
O2447       O  0.42027874  0.12621318  0.22804990    -0.25700
C2448       C  0.41682900  0.11182153  0.22520295     0.06500
C2449       C  0.42624055  0.10517959  0.21447054    -0.30500
O2450       O  0.46510120  0.13450682  0.18776364    -0.22400
C2451       C  0.46831552  0.14898150  0.19052578    -0.02400
C2452       C  0.45983262  0.15511918  0.20227393    -0.16800
H2453       H  0.43637533  0.15264182  0.22448669     0.21200
H2454       H  0.44994788  0.10755489  0.19237725     0.19600
H2455       H  0.42540450  0.09401567  0.20948254     0.19500
H2456       H  0.46013412  0.16655115  0.20670648     0.15400
C2457       C  0.44605238  0.04104440  0.23330107     0.30800
C2458       C  0.43374969  0.04658666  0.22488899    -0.35500
C2459       C  0.42650825  0.05945689  0.23081411     0.16800
C2460       C  0.43124584  0.06652353  0.24396245     0.22600
C2461       C  0.44338590  0.06087632  0.25243286    -0.33600
C2462       C  0.45042739  0.04788828  0.24666613     0.16700
O2463       O  0.45447744  0.02915618  0.22994179    -0.25700
C2464       C  0.46419130  0.02828949  0.24144329     0.06500
C2465       C  0.46214092  0.03960152  0.25219872    -0.30500
O2466       O  0.42303304  0.07849039  0.24738441    -0.22400
C2467       C  0.41279453  0.07895151  0.23640739    -0.02400
C2468       C  0.41429300  0.06742539  0.22578065    -0.16800
H2469       H  0.43003711  0.04120126  0.21451633     0.21200
H2470       H  0.44703105  0.06619409  0.26286244     0.19600
H2471       H  0.46848618  0.04151750  0.26250790     0.19500
H2472       H  0.40744845  0.06533419  0.21583930     0.15400
C2473       C  0.62567713  0.92987673  0.26696520     0.30800
C2474       C  0.63949805  0.93744352  0.26796665    -0.35500
C2475       C  0.64096535  0.94758442  0.28002988     0.16800
C2476       C  0.62961782  0.95018284  0.29042607     0.22600
C2477       C  0.61563998  0.94276243  0.28927877    -0.33600
C2478       C  0.61415734  0.93257589  0.27714864     0.16700
O2479       O  0.62254861  0.91882871  0.25750900    -0.25700
C2480       C  0.60874698  0.91451977  0.26144064     0.06500
C2481       C  0.60290031  0.92266525  0.27359588    -0.30500
O2482       O  0.63374940  0.95977140  0.30112385    -0.22400
C2483       C  0.64788439  0.96331747  0.29743097    -0.02400
C2484       C  0.65293391  0.95609401  0.28441022    -0.16800
H2485       H  0.64866471  0.93517672  0.26018798     0.21200
H2486       H  0.60673354  0.94447424  0.29749473     0.19600
H2487       H  0.59256428  0.92066473  0.27979692     0.19500
H2488       H  0.66387059  0.95693913  0.27901689     0.15400
C2489       C  0.54126501  0.84698031  0.21436491     0.30800
C2490       C  0.55087564  0.84659289  0.22693706    -0.35500
C2491       C  0.55933165  0.85971535  0.22951227     0.16800
C2492       C  0.55836106  0.87243007  0.22044287     0.22600
C2493       C  0.54883916  0.87276208  0.20774004    -0.33600
C2494       C  0.54044415  0.85955492  0.20508091     0.16700
O2495       O  0.53213503  0.83605007  0.21005859    -0.25700
C2496       C  0.52545603  0.84162666  0.19778811     0.06500
C2497       C  0.53023172  0.85617045  0.19406831    -0.30500
O2498       O  0.56764693  0.88326332  0.22479737    -0.22400
C2499       C  0.57462483  0.87732588  0.23674697    -0.02400
C2500       C  0.56995911  0.86270842  0.24014657    -0.16800
H2501       H  0.55174381  0.83672563  0.23416896     0.21200
H2502       H  0.54810972  0.88256240  0.20040396     0.19600
H2503       H  0.52642872  0.86331927  0.18485772     0.19500
H2504       H  0.57417359  0.85522346  0.24889933     0.15400
C2505       C  0.56120573  0.92654603  0.25570660     0.30800
C2506       C  0.55210740  0.93627952  0.26436341    -0.35500
C2507       C  0.54303552  0.94641341  0.25616796     0.16800
C2508       C  0.54294257  0.94693066  0.24053171     0.22600
C2509       C  0.55204583  0.93720907  0.23187356    -0.33600
C2510       C  0.56108004  0.92704392  0.24005911     0.16700
O2511       O  0.57071624  0.91636347  0.26102728    -0.25700
C2512       C  0.57666365  0.91023564  0.24862919     0.06500
C2513       C  0.57113821  0.91639450  0.23524079    -0.30500
O2514       O  0.53353494  0.95720062  0.23520183    -0.22400
C2515       C  0.52751215  0.96336686  0.24756727    -0.02400
C2516       C  0.53301731  0.95712181  0.26095713    -0.16800
H2517       H  0.55212811  0.93598886  0.27662573     0.21200
H2518       H  0.55207213  0.93754503  0.21961220     0.19600
H2519       H  0.57435037  0.91368493  0.22372479     0.19500
H2520       H  0.52998195  0.95996817  0.27249325     0.15400
C2521       C  0.35038992  0.95480133  0.28387836     0.30800
C2522       C  0.34822424  0.94367130  0.27276715    -0.35500
C2523       C  0.36109105  0.93550348  0.26848884     0.16800
C2524       C  0.37520305  0.93819025  0.27453636     0.22600
C2525       C  0.37737258  0.94935125  0.28569416    -0.33600
C2526       C  0.36442654  0.95739346  0.29015868     0.16700
O2527       O  0.33982751  0.96351344  0.28974222    -0.25700
C2528       C  0.34711941  0.97171499  0.30004429     0.06500
C2529       C  0.36245898  0.96838608  0.30084868    -0.30500
O2530       O  0.38548409  0.92865713  0.26935882    -0.22400
C2531       C  0.37781289  0.91972762  0.25994138    -0.02400
C2532       C  0.36259834  0.92348799  0.25899295    -0.16800
H2533       H  0.33720578  0.94131430  0.26803121     0.21200
H2534       H  0.38829671  0.95136208  0.29079524     0.19600
H2535       H  0.37090224  0.97340015  0.30816015     0.19500
H2536       H  0.35381128  0.91780248  0.25264566     0.15400
C2537       C  0.42860177  0.87666018  0.21878820     0.30800
C2538       C  0.43744035  0.87574605  0.20560108    -0.35500
C2539       C  0.44700148  0.86310133  0.20450021     0.16800
C2540       C  0.44785319  0.85216039  0.21564659     0.22600
C2541       C  0.43906243  0.85310525  0.22884485    -0.33600
C2542       C  0.42944761  0.86568456  0.22989616     0.16700
O2543       O  0.41829953  0.88703399  0.22178821    -0.25700
C2544       C  0.41255302  0.88270432  0.23502738     0.06500
C2545       C  0.41896948  0.86943058  0.24054112    -0.30500
O2546       O  0.45722569  0.84110012  0.21211669    -0.22400
C2547       C  0.46246138  0.84496073  0.19851254    -0.02400
C2548       C  0.45651052  0.85857223  0.19321412    -0.16800
H2549       H  0.43667069  0.88412624  0.19668087     0.21200
H2550       H  0.43945317  0.84446220  0.23753519     0.19600
H2551       H  0.41595260  0.86319521  0.25066035     0.19500
H2552       H  0.45873790  0.86419559  0.18254525     0.15400
C2553       C  0.42561772  0.93166296  0.25384560     0.30800
C2554       C  0.43432388  0.94174583  0.26249702    -0.35500
C2555       C  0.44554780  0.94971487  0.25460622     0.16800
C2556       C  0.44801492  0.94792304  0.23925903     0.22600
C2557       C  0.43933625  0.93782472  0.23062199    -0.33600
C2558       C  0.42812834  0.92986002  0.23850416     0.16700
O2559       O  0.41454647  0.92302911  0.25887459    -0.25700
C2560       C  0.40996742  0.91562144  0.24657839     0.06500
C2561       C  0.41791926  0.91947602  0.23356431    -0.30500
O2562       O  0.45888582  0.95674452  0.23413712    -0.22400
C2563       C  0.46347493  0.96426426  0.24636690    -0.02400
C2564       C  0.45561583  0.96031953  0.25943846    -0.16800
H2565       H  0.43244353  0.94330810  0.27451609     0.21200
H2566       H  0.44114749  0.93633400  0.21858194     0.19600
H2567       H  0.41627773  0.91544585  0.22211341     0.19500
H2568       H  0.45697057  0.96479979  0.27077823     0.15400
C2569       C  0.28502102  0.04564940  0.64830104     0.30800
C2570       C  0.27328747  0.05621888  0.64933509    -0.35500
C2571       C  0.26981369  0.06402579  0.63597039     0.16800
C2572       C  0.27720459  0.06151136  0.62242915     0.22600
C2573       C  0.28900223  0.05095807  0.62140184    -0.33600
C2574       C  0.29263592  0.04329121  0.63485034     0.16700
O2575       O  0.29017831  0.03716597  0.65944122    -0.25700
C2576       C  0.30136097  0.02939809  0.65309777     0.06500
C2577       C  0.30345456  0.03276725  0.63783511    -0.30500
O2578       O  0.27249882  0.07060642  0.61154043    -0.22400
C2579       C  0.26204343  0.07907636  0.61825979    -0.02400
C2580       C  0.25992161  0.07547834  0.63344075    -0.16800
H2581       H  0.26744926  0.05839187  0.65988536     0.21200
H2582       H  0.29511267  0.04908444  0.61094681     0.19600
H2583       H  0.31158107  0.02795452  0.63004227     0.19500
H2584       H  0.25255303  0.08092768  0.64156271     0.15400
C2585       C  0.23044843  0.13106284  0.56659472     0.30800
C2586       C  0.22839111  0.14506310  0.55941687    -0.35500
C2587       C  0.21587907  0.14613933  0.54980089     0.16800
C2588       C  0.20601675  0.13427760  0.54739555     0.22600
C2589       C  0.20818259  0.12017838  0.55446465    -0.33600
C2590       C  0.22078929  0.11906445  0.56404665     0.16700
O2591       O  0.24056004  0.12808552  0.57708942    -0.25700
C2592       C  0.23758953  0.11389764  0.58116274     0.06500
C2593       C  0.22540546  0.10766588  0.57340345    -0.30500
O2594       O  0.19494114  0.13793354  0.53808072    -0.22400
C2595       C  0.19782726  0.15229452  0.53447292    -0.02400
C2596       C  0.21070477  0.15797498  0.54144169    -0.16800
H2597       H  0.23581014  0.15457858  0.56149627     0.21200
H2598       H  0.20043861  0.11083970  0.55283371     0.19600
H2599       H  0.21983040  0.09695398  0.57538950     0.19500
H2600       H  0.21560888  0.16915625  0.54037256     0.15400
C2601       C  0.25753117  0.04525578  0.55078226     0.30800
C2602       C  0.26635656  0.05522459  0.55944613    -0.35500
C2603       C  0.25844739  0.06482943  0.56931000     0.16800
C2604       C  0.24291126  0.06460048  0.57059907     0.22600
C2605       C  0.23409765  0.05458750  0.56198285    -0.33600
C2606       C  0.24200819  0.04503193  0.55207916     0.16700
O2607       O  0.26254855  0.03553083  0.54061640    -0.25700
C2608       C  0.25007776  0.02902048  0.53530812     0.06500
C2609       C  0.23696010  0.03445937  0.54204878    -0.30500
O2610       O  0.23784557  0.07465976  0.58040348    -0.22400
C2611       C  0.25029930  0.08138293  0.58541797    -0.02400
C2612       C  0.26346173  0.07577944  0.57896176    -0.16800
H2613       H  0.27852553  0.05556517  0.55845986     0.21200
H2614       H  0.22191668  0.05436530  0.56283815     0.19600
H2615       H  0.22540315  0.03120234  0.53976853     0.19500
H2616       H  0.27496685  0.07933446  0.58103021     0.15400
C2617       C  0.27281113  0.06686450  0.37274898     0.30800
C2618       C  0.27366942  0.05935327  0.35879331    -0.35500
C2619       C  0.28614692  0.04983880  0.35679689     0.16800
C2620       C  0.29710824  0.04785623  0.36773636     0.22600
C2621       C  0.29612385  0.05522499  0.38182974    -0.33600
C2622       C  0.28353776  0.06468539  0.38388737     0.16700
O2623       O  0.26282943  0.07726195  0.37643053    -0.25700
C2624       C  0.26695171  0.08159796  0.39024977     0.06500
C2625       C  0.27976101  0.07415442  0.39551396    -0.30500
O2626       O  0.30799471  0.03867501  0.36322760    -0.22400
C2627       C  0.30386552  0.03471425  0.34925663    -0.02400
C2628       C  0.29035290  0.04130076  0.34470429    -0.16800
H2629       H  0.26537855  0.06111041  0.34995003     0.21200
H2630       H  0.30470640  0.05390408  0.39046371     0.19600
H2631       H  0.28609608  0.07633251  0.40576613     0.19500
H2632       H  0.28446980  0.03994562  0.33403308     0.15400
C2633       C  0.20879570  0.13559672  0.45977675     0.30800
C2634       C  0.21285893  0.12143962  0.45376625    -0.35500
C2635       C  0.22477010  0.12152714  0.44327825     0.16800
C2636       C  0.23199853  0.13465047  0.43888650     0.22600
C2637       C  0.22804472  0.14874855  0.44496668    -0.33600
C2638       C  0.21629014  0.14863883  0.45554106     0.16700
O2639       O  0.19804502  0.13823278  0.46978944    -0.25700
C2640       C  0.19882211  0.15312643  0.47202791     0.06500
C2641       C  0.20995513  0.16016232  0.46347540    -0.30500
O2642       O  0.24200289  0.13231336  0.42814027    -0.22400
C2643       C  0.24141054  0.11745504  0.42570430    -0.02400
C2644       C  0.23087432  0.11013838  0.43484677    -0.16800
H2645       H  0.20706753  0.11112191  0.45693289     0.21200
H2646       H  0.23360950  0.15911086  0.44153308     0.19600
H2647       H  0.21300163  0.17203798  0.46325376     0.19500
H2648       H  0.22725320  0.09847523  0.43456505     0.15400
C2649       C  0.25849880  0.04875478  0.45816486     0.30800
C2650       C  0.26759354  0.05988549  0.45139778    -0.35500
C2651       C  0.26063772  0.06885894  0.44029021     0.16800
C2652       C  0.24575644  0.06693775  0.43604285     0.22600
C2653       C  0.23659946  0.05592622  0.44296479    -0.33600
C2654       C  0.24354394  0.04700537  0.45416080     0.16700
O2655       O  0.26281315  0.03896477  0.46858674    -0.25700
C2656       C  0.25046007  0.03086866  0.47142678     0.06500
C2657       C  0.23807249  0.03541298  0.46283065    -0.30500
O2658       O  0.24165958  0.07636386  0.42517936    -0.22400
C2659       C  0.25402822  0.08450418  0.42262545    -0.02400
C2660       C  0.26619841  0.08038260  0.43164531    -0.16800
H2661       H  0.27931252  0.06137793  0.45451527     0.21200
H2662       H  0.22490746  0.05436935  0.43977982     0.19600
H2663       H  0.22678571  0.03072638  0.46282673     0.19500
H2664       H  0.27743946  0.08516374  0.43176404     0.15400
C2665       C  0.28375732  0.94972754  0.64775551     0.30800
C2666       C  0.27354944  0.93770546  0.64932253    -0.35500
C2667       C  0.26927354  0.93044752  0.63587362     0.16800
C2668       C  0.27438710  0.93489893  0.62178211     0.22600
C2669       C  0.28455840  0.94699630  0.62020550    -0.33600
C2670       C  0.28915086  0.95402629  0.63371748     0.16700
O2671       O  0.28981354  0.95756684  0.65891136    -0.25700
C2672       C  0.29941020  0.96684597  0.65198297     0.06500
C2673       C  0.29949659  0.96516836  0.63630117    -0.30500
O2674       O  0.26963762  0.92588117  0.61084494    -0.22400
C2675       C  0.26151319  0.91545996  0.61806904    -0.02400
C2676       C  0.26087373  0.91777058  0.63364427    -0.16800
H2677       H  0.26965248  0.93391623  0.66031132     0.21200
H2678       H  0.28903265  0.95029397  0.60928207     0.19600
H2679       H  0.30621469  0.97124549  0.62805659     0.19500
H2680       H  0.25551357  0.91076236  0.64215034     0.15400
C2681       C  0.23324429  0.86302470  0.56455514     0.30800
C2682       C  0.23024158  0.84904447  0.55765950    -0.35500
C2683       C  0.21890765  0.84907878  0.54659719     0.16800
C2684       C  0.21100396  0.86195548  0.54260668     0.22600
C2685       C  0.21422400  0.87601060  0.54931017    -0.33600
C2686       C  0.22564044  0.87599487  0.56033761     0.16700
O2687       O  0.24230469  0.86526439  0.57616298    -0.25700
C2688       C  0.24071561  0.87991869  0.57932737     0.06500
C2689       C  0.23051870  0.88718585  0.56976760    -0.30500
O2690       O  0.20051138  0.85923785  0.53234420    -0.22400
C2691       C  0.20183306  0.84445781  0.52968015    -0.02400
C2692       C  0.21311932  0.83757219  0.53818440    -0.16800
H2693       H  0.23601410  0.83876948  0.56101738     0.21200
H2694       H  0.20800652  0.88616476  0.54641376     0.19600
H2695       H  0.22617534  0.89858868  0.57046372     0.19500
H2696       H  0.21652163  0.82579224  0.53817014     0.15400
C2697       C  0.25898338  0.92802405  0.56844273     0.30800
C2698       C  0.26753918  0.93559684  0.55739294    -0.35500
C2699       C  0.26015981  0.94734713  0.54962936     0.16800
C2700       C  0.24535829  0.95130877  0.55247787     0.22600
C2701       C  0.23692476  0.94397838  0.56376011    -0.33600
C2702       C  0.24431065  0.93230020  0.57157667     0.16700
O2703       O  0.26338348  0.91629836  0.57661384    -0.25700
C2704       C  0.25135740  0.91313320  0.58504611     0.06500
C2705       C  0.23925958  0.92281900  0.58263786    -0.30500
O2706       O  0.24047587  0.96213792  0.54340808    -0.22400
C2707       C  0.25234047  0.96527668  0.53471975    -0.02400
C2708       C  0.26494558  0.95650252  0.53815391    -0.16800
H2709       H  0.27904435  0.93237263  0.55483436     0.21200
H2710       H  0.22531537  0.94699140  0.56609622     0.19600
H2711       H  0.22826888  0.92259524  0.58797672     0.19500
H2712       H  0.27591046  0.95663841  0.53275158     0.15400
C2713       C  0.28724683  0.93577863  0.38053981     0.30800
C2714       C  0.30005540  0.94518507  0.38004643    -0.35500
C2715       C  0.30088779  0.95522576  0.36770170     0.16800
C2716       C  0.28984551  0.95592862  0.35668306     0.22600
C2717       C  0.27710254  0.94655743  0.35717163    -0.33600
C2718       C  0.27629564  0.93654348  0.36943990     0.16700
O2719       O  0.28442752  0.92507809  0.39061640    -0.25700
C2720       C  0.27145614  0.91906631  0.38593292     0.06500
C2721       C  0.26596907  0.92565766  0.37275475    -0.30500
O2722       O  0.29292256  0.96588853  0.34603152    -0.22400
C2723       C  0.30612593  0.97170460  0.35018629    -0.02400
C2724       C  0.31167259  0.96551217  0.36360688    -0.16800
H2725       H  0.30884531  0.94455237  0.38854068     0.21200
H2726       H  0.26851527  0.94689976  0.34845554     0.19600
H2727       H  0.25607076  0.92250041  0.36629598     0.19500
H2728       H  0.32212088  0.96812859  0.36940014     0.15400
C2729       C  0.22049188  0.85306411  0.45296130     0.30800
C2730       C  0.23310887  0.85228695  0.44345646    -0.35500
C2731       C  0.23663079  0.86552186  0.43548172     0.16800
C2732       C  0.22847630  0.87876988  0.43685894     0.22600
C2733       C  0.21581941  0.87957874  0.44647144    -0.33600
C2734       C  0.21213211  0.86619365  0.45432220     0.16700
O2735       O  0.21500214  0.84180972  0.46104726    -0.25700
C2736       C  0.20284580  0.84766374  0.46763381     0.06500
C2737       C  0.20047035  0.86282916  0.46389108    -0.30500
O2738       O  0.23339099  0.88948967  0.42761204    -0.22400
C2739       C  0.24478337  0.88292944  0.42024832    -0.02400
C2740       C  0.24724634  0.86803856  0.42469676    -0.16800
H2741       H  0.23950583  0.84193785  0.44206565     0.21200
H2742       H  0.20908939  0.88976347  0.44742867     0.19600
H2743       H  0.19151451  0.87025179  0.46768904     0.19500
H2744       H  0.25532860  0.86003542  0.42016894     0.15400
C2745       C  0.26088298  0.95162089  0.45305890     0.30800
C2746       C  0.27036901  0.94411575  0.44280120    -0.35500
C2747       C  0.26346353  0.93323389  0.43355361     0.16800
C2748       C  0.24827235  0.92985344  0.43438674     0.22600
C2749       C  0.23875981  0.93739143  0.44464245    -0.33600
C2750       C  0.24566291  0.94837221  0.45383910     0.16700
O2751       O  0.26500201  0.96218788  0.46276778    -0.25700
C2752       C  0.25225572  0.96584283  0.46983241     0.06500
C2753       C  0.23983837  0.95761937  0.46474378    -0.30500
O2754       O  0.24428967  0.91909456  0.42480320    -0.22400
C2755       C  0.25709310  0.91567440  0.41771575    -0.02400
C2756       C  0.26939641  0.92405204  0.42271518    -0.16800
H2757       H  0.28230793  0.94658907  0.44208269     0.21200
H2758       H  0.22683360  0.93486057  0.44540988     0.19600
H2759       H  0.22825578  0.95831646  0.46857402     0.19500
H2760       H  0.28105900  0.92319255  0.41924352     0.15400
C2761       C  0.06613844  0.71603931  0.61418884     0.30800
C2762       C  0.05631359  0.70352896  0.61362083    -0.35500
C2763       C  0.04734639  0.70114688  0.62655409     0.16800
C2764       C  0.04791040  0.71056499  0.63903549     0.22600
C2765       C  0.05765106  0.72302414  0.63958922    -0.33600
C2766       C  0.06670740  0.72526626  0.62681193     0.16700
O2767       O  0.07629418  0.71984317  0.60389511    -0.25700
C2768       C  0.08341778  0.73158220  0.61012514     0.06500
C2769       C  0.07793556  0.73540676  0.62435094    -0.30500
O2770       O  0.03878710  0.70622595  0.64995296    -0.22400
C2771       C  0.03229310  0.69378851  0.64452489    -0.02400
C2772       C  0.03716814  0.69003409  0.62999132    -0.16800
H2773       H  0.05597416  0.69597404  0.60396714     0.21200
H2774       H  0.05838762  0.73025464  0.64947125     0.19600
H2775       H  0.08209944  0.74401440  0.63202938     0.19500
H2776       H  0.03369278  0.68057325  0.62301131     0.15400
C2777       C  0.12422259  0.77341829  0.55886360     0.30800
C2778       C  0.12316545  0.78549599  0.54851729    -0.35500
C2779       C  0.13657385  0.78942995  0.54095457     0.16800
C2780       C  0.15000407  0.78183902  0.54325601     0.22600
C2781       C  0.15107628  0.76987536  0.55363499    -0.33600
C2782       C  0.13776547  0.76609438  0.56130495     0.16700
O2783       O  0.11335193  0.76829592  0.56775540    -0.25700
C2784       C  0.12008579  0.75761115  0.57599863     0.06500
C2785       C  0.13527019  0.75582815  0.57248190    -0.30500
O2786       O  0.16112780  0.78729065  0.53498515    -0.22400
C2787       C  0.15484343  0.79866675  0.52738114    -0.02400
C2788       C  0.13958483  0.80057742  0.53066263    -0.16800
H2789       H  0.11270917  0.79156797  0.54669892     0.21200
H2790       H  0.16162431  0.76406711  0.55575806     0.19600
H2791       H  0.14341127  0.74838095  0.57779444     0.19500
H2792       H  0.13184190  0.80885037  0.52601621     0.15400
C2793       C  0.05176478  0.75189460  0.54324308     0.30800
C2794       C  0.06100484  0.76065314  0.55271102    -0.35500
C2795       C  0.07084946  0.75261291  0.56217918     0.16800
C2796       C  0.07146427  0.73697816  0.56247941     0.22600
C2797       C  0.06214698  0.72818725  0.55303217    -0.33600
C2798       C  0.05236962  0.73626724  0.54342984     0.16700
O2799       O  0.04201650  0.75715591  0.53326734    -0.25700
C2800       C  0.03625721  0.74477681  0.52691029     0.06500
C2801       C  0.04224767  0.73141678  0.53280580    -0.30500
O2802       O  0.08153127  0.73186432  0.57226423    -0.22400
C2803       C  0.08750555  0.74442461  0.57807544    -0.02400
C2804       C  0.08125387  0.75765161  0.57234485    -0.16800
H2805       H  0.06065663  0.77290742  0.55258057     0.21200
H2806       H  0.06258194  0.71593273  0.55307448     0.19600
H2807       H  0.03963410  0.71986709  0.52962128     0.19500
H2808       H  0.08385167  0.76923348  0.57539639     0.15400
C2809       C  0.06967273  0.72099281  0.37326753     0.30800
C2810       C  0.06068712  0.70792121  0.37333769    -0.35500
C2811       C  0.05184746  0.70554845  0.36037325     0.16800
C2812       C  0.05177872  0.71539013  0.34820673     0.22600
C2813       C  0.06079286  0.72843650  0.34811595    -0.33600
C2814       C  0.06969300  0.73075570  0.36103917     0.16700
O2815       O  0.07941470  0.72499805  0.38382745    -0.25700
C2816       C  0.08573495  0.73747249  0.37828089     0.06500
C2817       C  0.08017197  0.74155195  0.36412443    -0.30500
O2818       O  0.04265270  0.71094791  0.33727819    -0.22400
C2819       C  0.03683547  0.69807807  0.34250603    -0.02400
C2820       C  0.04216901  0.69413878  0.35680053    -0.16800
H2821       H  0.06076925  0.70003241  0.38272790     0.21200
H2822       H  0.06101703  0.73611681  0.33855507     0.19600
H2823       H  0.08381908  0.75076497  0.35690099     0.19500
H2824       H  0.03923630  0.68436461  0.36359844     0.15400
C2825       C  0.15122112  0.78530173  0.44778552     0.30800
C2826       C  0.15254761  0.77395249  0.43679132    -0.35500
C2827       C  0.13917563  0.76980031  0.42944983     0.16800
C2828       C  0.12535025  0.77620593  0.43275206     0.22600
C2829       C  0.12402866  0.78763547  0.44376956    -0.33600
C2830       C  0.13749385  0.79197065  0.45099446     0.16700
O2831       O  0.16231954  0.79086205  0.45599264    -0.25700
C2832       C  0.15571038  0.80139559  0.46446186     0.06500
C2833       C  0.14027120  0.80266291  0.46181404    -0.30500
O2834       O  0.11449913  0.77115405  0.42379584    -0.22400
C2835       C  0.12155032  0.76146740  0.41465069    -0.02400
C2836       C  0.13688247  0.76018876  0.41769065    -0.16800
H2837       H  0.16331541  0.76890107  0.43396115     0.21200
H2838       H  0.11333920  0.79300385  0.44627673     0.19600
H2839       H  0.13224573  0.81006853  0.46734476     0.19500
H2840       H  0.14526448  0.75369380  0.41156834     0.15400
C2841       C  0.07354379  0.75513870  0.42748449     0.30800
C2842       C  0.06432590  0.76380797  0.43704798    -0.35500
C2843       C  0.05422327  0.75570017  0.44619455     0.16800
C2844       C  0.05318812  0.74010046  0.44601305     0.22600
C2845       C  0.06239239  0.73138982  0.43636820    -0.33600
C2846       C  0.07252380  0.73952228  0.42716901     0.16700
O2847       O  0.08376674  0.76045293  0.41800801    -0.25700
C2848       C  0.08932695  0.74809274  0.41147369     0.06500
C2849       C  0.08281809  0.73472465  0.41670433    -0.30500
O2850       O  0.04296892  0.73494265  0.45565996    -0.22400
C2851       C  0.03742925  0.74744264  0.46207091    -0.02400
C2852       C  0.04401844  0.76064815  0.45657343    -0.16800
H2853       H  0.06500111  0.77604477  0.43735528     0.21200
H2854       H  0.06171601  0.71915216  0.43606251     0.19600
H2855       H  0.08536238  0.72321422  0.41335497     0.19500
H2856       H  0.04165000  0.77223578  0.45980933     0.15400
C2857       C  0.95632420  0.71590749  0.64129685     0.30800
C2858       C  0.94832370  0.72951794  0.64229602    -0.35500
C2859       C  0.94021075  0.73370697  0.62938103     0.16800
C2860       C  0.93999183  0.72519794  0.61625903     0.22600
C2861       C  0.94798866  0.71145426  0.61527652    -0.33600
C2862       C  0.95607659  0.70717011  0.62831729     0.16700
O2863       O  0.96477489  0.71005515  0.65204242    -0.25700
C2864       C  0.96999978  0.69730851  0.64601233     0.06500
C2865       C  0.96494246  0.69483990  0.63126016    -0.30500
O2866       O  0.93119781  0.73119835  0.60573824    -0.22400
C2867       C  0.92575923  0.74363773  0.61232394    -0.02400
C2868       C  0.93098206  0.74570753  0.62701408    -0.16800
H2869       H  0.94835005  0.73633333  0.65249501     0.21200
H2870       H  0.94781032  0.70454751  0.60514407     0.19600
H2871       H  0.96768952  0.68555877  0.62373430     0.19500
H2872       H  0.92802597  0.75456866  0.63496168     0.15400
C2873       C  0.87927438  0.77706833  0.55872485     0.30800
C2874       C  0.86764026  0.77544075  0.54807723    -0.35500
C2875       C  0.86412367  0.78839647  0.53960066     0.16800
C2876       C  0.87161619  0.80199811  0.54135088     0.22600
C2877       C  0.88323277  0.80363972  0.55204370    -0.33600
C2878       C  0.88668511  0.79070177  0.56060991     0.16700
O2879       O  0.88378431  0.76668169  0.56844914    -0.25700
C2880       C  0.89430101  0.77370528  0.57656929     0.06500
C2881       C  0.89649456  0.78870319  0.57232825    -0.30500
O2882       O  0.86639454  0.81265297  0.53226088    -0.22400
C2883       C  0.85535345  0.80579183  0.52468518    -0.02400
C2884       C  0.85341333  0.79070571  0.52880855    -0.16800
H2885       H  0.86155720  0.76489840  0.54671071     0.21200
H2886       H  0.88899689  0.81431203  0.55373792     0.19600
H2887       H  0.90373394  0.79706344  0.57758468     0.19500
H2888       H  0.84533577  0.78261688  0.52442471     0.15400
C2889       C  0.93956335  0.74641042  0.56445963     0.30800
C2890       C  0.94842588  0.73631389  0.55588912    -0.35500
C2891       C  0.95769866  0.74290319  0.54473245     0.16800
C2892       C  0.95831369  0.75835098  0.54236356     0.22600
C2893       C  0.94952134  0.76839357  0.55090618    -0.33600
C2894       C  0.94015375  0.76182604  0.56185419     0.16700
O2895       O  0.92988657  0.74283339  0.57530931    -0.25700
C2896       C  0.92418341  0.75616437  0.57948010     0.06500
C2897       C  0.93019026  0.76833606  0.57155025    -0.30500
O2898       O  0.96770508  0.76214530  0.53143894    -0.22400
C2899       C  0.97317322  0.74898592  0.52657280    -0.02400
C2900       C  0.96736054  0.73658292  0.53442916    -0.16800
H2901       H  0.94801719  0.72419228  0.55768916     0.21200
H2902       H  0.94985060  0.78051134  0.54903568     0.19600
H2903       H  0.92768966  0.78025794  0.57285926     0.19500
H2904       H  0.96996342  0.72470650  0.53285304     0.15400
C2905       C  0.94597365  0.73049618  0.36998931     0.30800
C2906       C  0.95531814  0.71776888  0.37184148    -0.35500
C2907       C  0.96208685  0.71214877  0.35858538     0.16800
C2908       C  0.95997067  0.71875277  0.34455495     0.22600
C2909       C  0.95063752  0.73140351  0.34270635    -0.33600
C2910       C  0.94378947  0.73690050  0.35588751     0.16700
O2911       O  0.93767117  0.73700988  0.38057683    -0.25700
C2912       C  0.93009053  0.74767503  0.37310121     0.06500
C2913       C  0.93352848  0.74812877  0.35773401    -0.30500
O2914       O  0.96762094  0.71193227  0.33374800    -0.22400
C2915       C  0.97462687  0.70068429  0.34086797    -0.02400
C2916       C  0.97155795  0.70018206  0.35633573    -0.16800
H2917       H  0.95696742  0.71246277  0.38277652     0.21200
H2918       H  0.94869718  0.73649314  0.33171296     0.19600
H2919       H  0.92855865  0.75518639  0.34902395     0.19500
H2920       H  0.97604693  0.69245743  0.36473233     0.15400
C2921       C  0.88924370  0.78519799  0.42816628     0.30800
C2922       C  0.88944409  0.79610074  0.43975079    -0.35500
C2923       C  0.87580970  0.79817094  0.44758023     0.16800
C2924       C  0.86297882  0.78987014  0.44441777     0.22600
C2925       C  0.86278101  0.77899866  0.43287183    -0.33600
C2926       C  0.87629949  0.77712790  0.42490087     0.16700
O2927       O  0.90033624  0.78216948  0.41865804    -0.25700
C2928       C  0.89435401  0.77208197  0.40920927     0.06500
C2929       C  0.87943789  0.76857663  0.41253088    -0.30500
O2930       O  0.85140198  0.79384677  0.45287117    -0.22400
C2931       C  0.85679878  0.80497420  0.46144514    -0.02400
C2932       C  0.87192194  0.80818181  0.45866752    -0.16800
H2933       H  0.89937274  0.80282037  0.44216235     0.21200
H2934       H  0.85266353  0.77275321  0.43000940     0.19600
H2935       H  0.87183883  0.76125421  0.40631113     0.19500
H2936       H  0.87896095  0.81667592  0.46399058     0.15400
C2937       C  0.94138467  0.74935168  0.42194535     0.30800
C2938       C  0.94994507  0.73916590  0.43066450    -0.35500
C2939       C  0.95888050  0.74558766  0.44214841     0.16800
C2940       C  0.95945161  0.76098582  0.44480700     0.22600
C2941       C  0.95089727  0.77117454  0.43609419    -0.33600
C2942       C  0.94188812  0.76474999  0.42468538     0.16700
O2943       O  0.93216107  0.74581762  0.41071860    -0.25700
C2944       C  0.92665911  0.75913267  0.40630073     0.06500
C2945       C  0.93232381  0.77131000  0.41452212    -0.30500
O2946       O  0.96864531  0.76452794  0.45604596    -0.22400
C2947       C  0.97399166  0.75121906  0.46072861    -0.02400
C2948       C  0.96829555  0.73903837  0.45248594    -0.16800
H2949       H  0.94962021  0.72707385  0.42867002     0.21200
H2950       H  0.95120530  0.78326635  0.43810266     0.19600
H2951       H  0.92983614  0.78322966  0.41312166     0.19500
H2952       H  0.97083496  0.72711971  0.45383580     0.15400
C2953       C  0.72683324  0.05663635  0.62687242     0.30800
C2954       C  0.72442447  0.04968230  0.64091238    -0.35500
C2955       C  0.71333426  0.03842105  0.64122665     0.16800
C2956       C  0.70505833  0.03427537  0.62863232     0.22600
C2957       C  0.70773570  0.04100297  0.61444535    -0.33600
C2958       C  0.71895556  0.05224739  0.61410167     0.16700
O2959       O  0.73565077  0.06836329  0.62440309    -0.25700
C2960       C  0.73368663  0.07139417  0.60978774     0.06500
C2961       C  0.72348020  0.06168345  0.60274013    -0.30500
O2962       O  0.69473129  0.02395104  0.63179852    -0.22400
C2963       C  0.69659083  0.02143792  0.64656913    -0.02400
C2964       C  0.70804654  0.03005639  0.65296856    -0.16800
H2965       H  0.73044877  0.05315385  0.65101010     0.21200
H2966       H  0.70126105  0.03798542  0.60448598     0.19600
H2967       H  0.71912802  0.06224331  0.59129553     0.19500
H2968       H  0.71179555  0.03024551  0.66464860     0.15400
C2969       C  0.78733099  0.12817258  0.53906892     0.30800
C2970       C  0.78388741  0.11383279  0.54507280    -0.35500
C2971       C  0.77193688  0.11333454  0.55551498     0.16800
C2972       C  0.76405827  0.12610531  0.55983824     0.22600
C2973       C  0.76731689  0.14036771  0.55365857    -0.33600
C2974       C  0.77917080  0.14084367  0.54317096     0.16700
O2975       O  0.79823755  0.13134751  0.52938078    -0.25700
C2976       C  0.79694408  0.14622200  0.52718538     0.06500
C2977       C  0.78525119  0.15270798  0.53545326    -0.30500
O2978       O  0.75437601  0.12336766  0.57080950    -0.22400
C2979       C  0.75583782  0.10860014  0.57345515    -0.02400
C2980       C  0.76655569  0.10172473  0.56418144    -0.16800
H2981       H  0.79028901  0.10382640  0.54206693     0.21200
H2982       H  0.76129282  0.15046748  0.55710447     0.19600
H2983       H  0.78176471  0.16446037  0.53573187     0.19500
H2984       H  0.77073310  0.09022010  0.56461333     0.15400
C2985       C  0.75216097  0.03620486  0.54569025     0.30800
C2986       C  0.75952543  0.04244026  0.55833266    -0.35500
C2987       C  0.75258991  0.05514065  0.56490278     0.16800
C2988       C  0.73939393  0.06134963  0.55930544     0.22600
C2989       C  0.73185901  0.05489358  0.54692784    -0.33600
C2990       C  0.73870884  0.04213455  0.54047051     0.16700
O2991       O  0.75685423  0.02463987  0.53745961    -0.25700
C2992       C  0.74613186  0.02304822  0.52701108     0.06500
C2993       C  0.73452229  0.03353442  0.52840139    -0.30500
O2994       O  0.73514881  0.07352851  0.56680726    -0.22400
C2995       C  0.74570570  0.07503361  0.57737641    -0.02400
C2996       C  0.75675697  0.06388281  0.57693060    -0.16800
H2997       H  0.77000756  0.03782966  0.56262841     0.21200
H2998       H  0.72146003  0.05959413  0.54253303     0.19600
H2999       H  0.72463245  0.03483094  0.52131253     0.19500
H3000       H  0.76645331  0.06257159  0.58427480     0.15400
C3001       C  0.73003727  0.05654943  0.36366823     0.30800
C3002       C  0.72818324  0.04890907  0.34987892    -0.35500
C3003       C  0.71560719  0.03938147  0.34886997     0.16800
C3004       C  0.70549198  0.03748434  0.36060895     0.22600
C3005       C  0.70752685  0.04490306  0.37456053    -0.33600
C3006       C  0.72020110  0.05440733  0.37561007     0.16700
O3007       O  0.74010600  0.06714364  0.36643108    -0.25700
C3008       C  0.73695964  0.07166547  0.38044362     0.06500
C3009       C  0.72472853  0.06408362  0.38679976    -0.30500
O3010       O  0.69419575  0.02846557  0.35690902    -0.22400
C3011       C  0.69720407  0.02452067  0.34265561    -0.02400
C3012       C  0.71041082  0.03092946  0.33709958    -0.16800
H3013       H  0.73574487  0.05067403  0.34040911     0.21200
H3014       H  0.69957354  0.04367526  0.38378880     0.19600
H3015       H  0.71918690  0.06632434  0.39749646     0.19500
H3016       H  0.71539957  0.02960224  0.32597904     0.15400
C3017       C  0.79070463  0.12909656  0.45114931     0.30800
C3018       C  0.78824447  0.11486408  0.44446287    -0.35500
C3019       C  0.77697450  0.11425982  0.43330030     0.16800
C3020       C  0.76891482  0.12686464  0.42883368     0.22600
C3021       C  0.77127690  0.14105834  0.43559733    -0.33600
C3022       C  0.78235210  0.14160677  0.44693346     0.16700
O3023       O  0.80068205  0.13225494  0.46178647    -0.25700
C3024       C  0.79858022  0.14693679  0.46453456     0.06500
C3025       C  0.78728454  0.15334569  0.45565773    -0.30500
O3026       O  0.75956471  0.12393812  0.41760620    -0.22400
C3027       C  0.76138713  0.10919436  0.41501030    -0.02400
C3028       C  0.77210706  0.10256551  0.42444878    -0.16800
H3029       H  0.79470940  0.10496932  0.44769604     0.21200
H3030       H  0.76498978  0.15100574  0.43217564     0.19600
H3031       H  0.78336161  0.16496224  0.45559656     0.19500
H3032       H  0.77640091  0.09110740  0.42424664     0.15400
C3033       C  0.75485134  0.03757044  0.44522012     0.30800
C3034       C  0.76320765  0.04446543  0.43358480    -0.35500
C3035       C  0.75628421  0.05678911  0.42630998     0.16800
C3036       C  0.74215747  0.06207639  0.43031127     0.22600
C3037       C  0.73373547  0.05506176  0.44180957    -0.33600
C3038       C  0.74059003  0.04263381  0.44895516     0.16700
O3039       O  0.75919874  0.02599746  0.45364659    -0.25700
C3040       C  0.74747623  0.02349131  0.46274642     0.06500
C3041       C  0.73555709  0.03344935  0.46028285    -0.30500
O3042       O  0.73787454  0.07379139  0.42206869    -0.22400
C3043       C  0.74942093  0.07597657  0.41271007    -0.02400
C3044       C  0.76111813  0.06568922  0.41465866    -0.16800
H3045       H  0.77432424  0.04049501  0.43041876     0.21200
H3046       H  0.72259700  0.05899424  0.44493949     0.19600
H3047       H  0.72486497  0.03399717  0.46618443     0.19500
H3048       H  0.77157011  0.06490608  0.40836911     0.15400
C3049       C  0.71839826  0.92561421  0.61447375     0.30800
C3050       C  0.70625698  0.93586442  0.61390166    -0.35500
C3051       C  0.70354772  0.94421195  0.62720292     0.16800
C3052       C  0.71233909  0.94271542  0.64004053     0.22600
C3053       C  0.72440194  0.93249065  0.64061249    -0.33600
C3054       C  0.72694912  0.92402304  0.62745501     0.16700
O3055       O  0.72256974  0.91612034  0.60367780    -0.25700
C3056       C  0.73385384  0.90835303  0.60992721     0.06500
C3057       C  0.73700149  0.91275828  0.62469907    -0.30500
O3058       O  0.70784607  0.95151159  0.65120942    -0.22400
C3059       C  0.69590792  0.95868213  0.64558125    -0.02400
C3060       C  0.69266025  0.95459680  0.63067501    -0.16800
H3061       H  0.69925264  0.93702798  0.60392038     0.21200
H3062       H  0.73116049  0.93103445  0.65072511     0.19600
H3063       H  0.74527610  0.90805022  0.63240122     0.19500
H3064       H  0.68367229  0.95873284  0.62346813     0.15400
C3065       C  0.78723593  0.85018917  0.53810134     0.30800
C3066       C  0.77473857  0.84800817  0.54754246    -0.35500
C3067       C  0.77092216  0.86019946  0.55691832     0.16800
C3068       C  0.77870285  0.87374954  0.55691849     0.22600
C3069       C  0.79127541  0.87593802  0.54744724    -0.33600
C3070       C  0.79521894  0.86362419  0.53815086     0.16700
O3071       O  0.79298352  0.84006106  0.52880564    -0.25700
C3072       C  0.80487989  0.84700293  0.52283489     0.06500
C3073       C  0.80685138  0.86171481  0.52819978    -0.30500
O3074       O  0.77342218  0.88337672  0.56708867    -0.22400
C3075       C  0.76219283  0.87579913  0.57365688    -0.02400
C3076       C  0.76019895  0.86132995  0.56783348    -0.16800
H3077       H  0.76861005  0.83740432  0.54779774     0.21200
H3078       H  0.79770876  0.88636000  0.54755572     0.19600
H3079       H  0.81561825  0.86974036  0.52528261     0.19500
H3080       H  0.75227111  0.85273714  0.57147076     0.15400
C3081       C  0.75440228  0.92325720  0.56227148     0.30800
C3082       C  0.76321986  0.93299677  0.55338266    -0.35500
C3083       C  0.75528906  0.94275097  0.54369451     0.16800
C3084       C  0.73973961  0.94293127  0.54275468     0.22600
C3085       C  0.73089618  0.93322546  0.55170987    -0.33600
C3086       C  0.73883133  0.92348677  0.56145156     0.16700
O3087       O  0.75949239  0.91311060  0.57197863    -0.25700
C3088       C  0.74700655  0.90690100  0.57753164     0.06500
C3089       C  0.73381434  0.91281174  0.57139648    -0.30500
O3090       O  0.73473800  0.95282254  0.53270236    -0.22400
C3091       C  0.74726810  0.95903432  0.52715325    -0.02400
C3092       C  0.76036709  0.95322915  0.53361820    -0.16800
H3093       H  0.77542083  0.93291583  0.55391999     0.21200
H3094       H  0.71869958  0.93321702  0.55107957     0.19600
H3095       H  0.72228442  0.90954726  0.57375984     0.19500
H3096       H  0.77195444  0.95621052  0.53113734     0.15400
C3097       C  0.71798659  0.92924024  0.37367787     0.30800
C3098       C  0.70640320  0.94003387  0.37489008    -0.35500
C3099       C  0.70315459  0.94823794  0.36165440     0.16800
C3100       C  0.71099143  0.94615029  0.34828969     0.22600
C3101       C  0.72256084  0.93542878  0.34709644    -0.33600
C3102       C  0.72558361  0.92704773  0.36019766     0.16700
O3103       O  0.72233038  0.91967621  0.38430759    -0.25700
C3104       C  0.73272716  0.91123233  0.37746202     0.06500
C3105       C  0.73517718  0.91528463  0.36246188    -0.30500
O3106       O  0.70601645  0.95483190  0.33726078    -0.22400
C3107       C  0.69472765  0.96248986  0.34353878    -0.02400
C3108       C  0.69239184  0.95888548  0.35871282    -0.16800
H3109       H  0.70011364  0.94162971  0.38528025     0.21200
H3110       H  0.72852018  0.93348592  0.33656987     0.19600
H3111       H  0.74269122  0.91005403  0.35432836     0.19500
H3112       H  0.68404774  0.96346624  0.36640915     0.15400
C3113       C  0.79702501  0.86226013  0.44522352     0.30800
C3114       C  0.79482300  0.87481431  0.43567889    -0.35500
C3115       C  0.78111732  0.87513347  0.42767136     0.16800
C3116       C  0.77040443  0.86383723  0.42891242     0.22600
C3117       C  0.77254303  0.85141233  0.43850909    -0.33600
C3118       C  0.78618537  0.85109706  0.44647137     0.16700
O3119       O  0.80900974  0.85947314  0.45370320    -0.25700
C3120       C  0.80573534  0.84632445  0.46034690     0.06500
C3121       C  0.79170022  0.84063386  0.45624784    -0.30500
O3122       O  0.75893029  0.86580139  0.41965062    -0.22400
C3123       C  0.76214744  0.87867538  0.41257737    -0.02400
C3124       C  0.77582842  0.88498798  0.41703676    -0.16800
H3125       H  0.80327198  0.88357834  0.43440908     0.21200
H3126       H  0.76427608  0.84243186  0.43945178     0.19600
H3127       H  0.78627574  0.83032781  0.46006694     0.19500
H3128       H  0.78148551  0.89482344  0.41241842     0.15400
C3129       C  0.74034989  0.94375010  0.44618121     0.30800
C3130       C  0.73132586  0.93486515  0.43661407    -0.35500
C3131       C  0.73906028  0.92553524  0.42637846     0.16800
C3132       C  0.75461733  0.92490437  0.42565604     0.22600
C3133       C  0.76364741  0.93376884  0.43525182    -0.33600
C3134       C  0.75590168  0.94315649  0.44545050     0.16700
O3135       O  0.73547679  0.95339574  0.45648017    -0.25700
C3136       C  0.74806246  0.95906598  0.46243109     0.06500
C3137       C  0.76112246  0.95309537  0.45603013    -0.30500
O3138       O  0.75945726  0.91517452  0.41541664    -0.22400
C3139       C  0.74682774  0.90965708  0.40944753    -0.02400
C3140       C  0.73379136  0.91558423  0.41586011    -0.16800
H3141       H  0.71912824  0.93522211  0.43710039     0.21200
H3142       H  0.77584518  0.93336293  0.43480534     0.19600
H3143       H  0.77273950  0.95578899  0.45870130     0.19500
H3144       H  0.72218487  0.91264368  0.41344449     0.15400
loop_ 
_geom_bond_atom_site_label_1 
_geom_bond_atom_site_label_2 
_geom_bond_distance 
_geom_bond_site_symmetry_2 
_ccdc_geom_bond_type 
N1            C5   1.352       .  A
N1            C2   1.353       .  A
N1         C3139   1.434       .  S
C2            C3   1.383       .  A
C2         C3104   1.470       .  S
C3            C4   1.377       .  A
C3            H6   1.082       .  S
C4            C5   1.380       .  A
C4            H7   1.082       .  S
C5         C3123   1.466       .  S
N8           C12   1.353       .  A
N8            C9   1.354       .  A
N8         C3088   1.434       .  S
C9           C10   1.383       .  A
C9         C3056   1.473       .  S
C10          C11   1.376       .  A
C10          H13   1.082       .  S
C11          C12   1.382       .  A
C11          H14   1.082       .  S
C12        C3075   1.472       .  S
N15          C19   1.357       .  A
N15          C16   1.353       .  A
N15        C3043   1.433       .  S
C16          C17   1.380       .  A
C16        C3008   1.470       .  S
C17          C18   1.376       .  A
C17          H20   1.082       .  S
C18          C19   1.382       .  A
C18          H21   1.082       .  S
C19        C3027   1.475       .  S
N22          C26   1.355       .  A
N22          C23   1.352       .  A
N22        C2995   1.430       .  S
C23          C24   1.380       .  A
C23        C2960   1.471       .  S
C24          C25   1.377       .  A
C24          H27   1.082       .  S
C25          C26   1.382       .  A
C25          H28   1.082       .  S
C26        C2979   1.475       .  S
O29         Ni37   1.913   1_545  S
O29          C39   1.280       .  A
O30         Ni37   1.918       .  S
O30          C40   1.281       .  A
O31         Ni37   1.924       .  S
O31          C41   1.282       .  A
O32         Ni37   1.920   1_545  S
O32          C42   1.282       .  A
O33         Ni38   1.922   1_545  S
O33          C42   1.281       .  A
O34         Ni38   1.915       .  S
O34          C41   1.281       .  A
O35         Ni38   1.918       .  S
O35          C40   1.281       .  A
O36         Ni38   1.922   1_545  S
O36          C39   1.281       .  A
Ni37        Ni38   2.391       .  S
C39        C2992   1.466       .  S
C40        C3136   1.469       .  S
C41        C3091   1.472       .  S
C42        C3040   1.472       .  S
N43          C47   1.356       .  A
N43          C44   1.357       .  A
N43        C2944   1.438       .  S
C44          C45   1.384       .  A
C44        C2912   1.474       .  S
C45          C46   1.372       .  A
C45          H48   1.082       .  S
C46          C47   1.381       .  A
C46          H49   1.082       .  S
C47        C2928   1.470       .  S
N50          C54   1.355       .  A
N50          C51   1.355       .  A
N50        C2896   1.438       .  S
C51          C52   1.385       .  A
C51        C2867   1.473       .  S
C52          C53   1.375       .  A
C52          H55   1.082       .  S
C53          C54   1.378       .  A
C53          H56   1.082       .  S
C54        C2880   1.466       .  S
N57          C61   1.355       .  A
N57          C58   1.356       .  A
N57        C2848   1.437       .  S
C58          C59   1.381       .  A
C58        C2816   1.469       .  S
C59          C60   1.373       .  A
C59          H62   1.082       .  S
C60          C61   1.383       .  A
C60          H63   1.082       .  S
C61        C2835   1.473       .  S
N64          C68   1.357       .  A
N64          C65   1.353       .  A
N64        C2803   1.434       .  S
C65          C66   1.382       .  A
C65        C2768   1.471       .  S
C66          C67   1.375       .  A
C66          H69   1.082       .  S
C67          C68   1.383       .  A
C67          H70   1.082       .  S
C68        C2784   1.476       .  S
O71         Ni79   1.919       .  S
O71          C81   1.281       .  A
O72         Ni79   1.920   1_655  S
O72          C82   1.281       .  A
O73         Ni79   1.914   1_655  S
O73          C83   1.280       .  A
O74         Ni79   1.915       .  S
O74          C84   1.281       .  A
O75         Ni80   1.930       .  S
O75          C84   1.283       .  A
O76         Ni80   1.931   1_655  S
O76          C83   1.283       .  A
O77         Ni80   1.927   1_655  S
O77          C82   1.283       .  A
O78         Ni80   1.924       .  S
O78          C81   1.282       .  A
Ni79        Ni80   2.389       .  S
C81        C2800   1.473       .  S
C82        C2947   1.476       .  S
C83        C2899   1.474       .  S
C84        C2851   1.476       .  S
N85          C89   1.356       .  A
N85          C86   1.357       .  A
N85        C2755   1.436       .  S
C86          C87   1.380       .  A
C86        C2720   1.472       .  S
C87          C88   1.376       .  A
C87          H90   1.082       .  S
C88          C89   1.384       .  A
C88          H91   1.082       .  S
C89        C2739   1.477       .  S
N92          C96   1.356       .  A
N92          C93   1.353       .  A
N92        C2704   1.433       .  S
C93          C94   1.383       .  A
C93        C2675   1.474       .  S
C94          C95   1.376       .  A
C94          H97   1.082       .  S
C95          C96   1.382       .  A
C95          H98   1.082       .  S
C96        C2688   1.475       .  S
N99         C103   1.355       .  A
N99         C100   1.357       .  A
N99        C2659   1.435       .  S
C100        C101   1.382       .  A
C100       C2643   1.473       .  S
C101        C102   1.374       .  A
C101        H104   1.082       .  S
C102        C103   1.380       .  A
C102        H105   1.082       .  S
C103       C2624   1.468       .  S
N106        C110   1.354       .  A
N106        C107   1.354       .  A
N106       C2611   1.434       .  S
C107        C108   1.380       .  A
C107       C2592   1.469       .  S
C108        C109   1.374       .  A
C108        H111   1.082       .  S
C109        C110   1.382       .  A
C109        H112   1.082       .  S
C110       C2579   1.471       .  S
O113       Ni121   1.917   1_545  S
O113        C123   1.281       .  A
O114       Ni121   1.920       .  S
O114        C124   1.281       .  A
O115       Ni121   1.924       .  S
O115        C125   1.282       .  A
O116       Ni121   1.929   1_545  S
O116        C126   1.283       .  A
O117       Ni122   1.916   1_545  S
O117        C126   1.280       .  A
O118       Ni122   1.918       .  S
O118        C125   1.281       .  A
O119       Ni122   1.919       .  S
O119        C124   1.281       .  A
O120       Ni122   1.918   1_545  S
O120        C123   1.281       .  A
Ni121      Ni122   2.390       .  S
C123       C2608   1.469       .  S
C124       C2752   1.470       .  S
C125       C2707   1.472       .  S
C126       C2656   1.474       .  S
N127        C131   1.357       .  A
N127        C128   1.357       .  A
N127       C2560   1.436       .  S
C128        C129   1.381       .  A
C128       C2544   1.475       .  S
C129        C130   1.376       .  A
C129        H132   1.082       .  S
C130        C131   1.384       .  A
C130        H133   1.082       .  S
C131       C2531   1.478       .  S
N134        C138   1.352       .  A
N134        C135   1.353       .  A
N134       C2512   1.435       .  S
C135        C136   1.382       .  A
C135       C2499   1.466       .  S
C136        C137   1.374       .  A
C136        H139   1.082       .  S
C137        C138   1.380       .  A
C137        H140   1.082       .  S
C138       C2480   1.465       .  S
N141        C145   1.356       .  A
N141        C142   1.355       .  A
N141       C2467   1.432       .  S
C142        C143   1.381       .  A
C142       C2448   1.474       .  S
C143        C144   1.376       .  A
C143        H146   1.082       .  S
C144        C145   1.382       .  A
C144        H147   1.082       .  S
C145       C2432   1.477       .  S
N148        C152   1.353       .  A
N148        C149   1.353       .  A
N148       C2419   1.432       .  S
C149        C150   1.382       .  A
C149       C2403   1.472       .  S
C150        C151   1.377       .  A
C150        H153   1.082       .  S
C151        C152   1.381       .  A
C151        H154   1.082       .  S
C152       C2384   1.470       .  S
O155       Ni163   1.924   1_545  S
O155        C165   1.283       .  A
O156       Ni163   1.919       .  S
O156        C166   1.281       .  A
O157       Ni163   1.922   1_545  S
O157        C167   1.281       .  A
O158       Ni163   1.914       .  S
O158        C168   1.280       .  A
O159       Ni164   1.925       .  S
O159        C168   1.283       .  A
O160       Ni164   1.920   1_545  S
O160        C167   1.282       .  A
O161       Ni164   1.918       .  S
O161        C166   1.281       .  A
O162       Ni164   1.915   1_545  S
O162        C165   1.279       .  A
Ni163      Ni164   2.391       .  S
C165       C2416   1.469       .  S
C166       C2563   1.469       .  S
C167       C2464   1.471       .  S
C168       C2515   1.471       .  S
N169        C173   1.356       .  A
N169        C170   1.355       .  A
N169       C2368   1.434       .  S
C170        C171   1.380       .  A
C170       C2352   1.472       .  S
C171        C172   1.374       .  A
C171        H174   1.082       .  S
C172        C173   1.383       .  A
C172        H175   1.082       .  S
C173       C2336   1.475       .  S
N176        C180   1.358       .  A
N176        C177   1.356       .  A
N176       C2320   1.438       .  S
C177        C178   1.382       .  A
C177       C2291   1.475       .  S
C178        C179   1.375       .  A
C178        H181   1.082       .  S
C179        C180   1.381       .  A
C179        H182   1.082       .  S
C180       C2304   1.473       .  S
N183        C187   1.353       .  A
N183        C184   1.356       .  A
N183       C2272   1.436       .  S
C184        C185   1.384       .  A
C184       C2259   1.472       .  S
C185        C186   1.373       .  A
C185        H188   1.082       .  S
C186        C187   1.381       .  A
C186        H189   1.082       .  S
C187       C2243   1.469       .  S
N190        C194   1.355       .  A
N190        C191   1.355       .  A
N190       C2227   1.433       .  S
C191        C192   1.384       .  A
C191       C2211   1.477       .  S
C192        C193   1.377       .  A
C192        H195   1.082       .  S
C193        C194   1.380       .  A
C193        H196   1.082       .  S
C194       C2195   1.472       .  S
O197       Ni205   1.924       .  S
O197        C207   1.282       .  A
O198       Ni205   1.925   1_556  S
O198        C208   1.282       .  A
O199       Ni205   1.918   1_556  S
O199        C209   1.281       .  A
O200       Ni205   1.918       .  S
O200        C210   1.281       .  A
O201       Ni206   1.922       .  S
O201        C210   1.282       .  A
O202       Ni206   1.922   1_556  S
O202        C209   1.281       .  A
O203       Ni206   1.912   1_556  S
O203        C208   1.280       .  A
O204       Ni206   1.916       .  S
O204        C207   1.280       .  A
Ni205      Ni206   2.390       .  S
C207       C2224   1.471       .  S
C208       C2371   1.471       .  S
C209       C2323   1.472       .  S
C210       C2275   1.472       .  S
N211        C215   1.355       .  A
N211        C212   1.354       .  A
N211       C2176   1.435       .  S
C212        C213   1.383       .  A
C212       C2160   1.473       .  S
C213        C214   1.375       .  A
C213        H216   1.082       .  S
C214        C215   1.382       .  A
C214        H217   1.082       .  S
C215       C2144   1.472       .  S
N218        C222   1.354       .  A
N218        C219   1.357       .  A
N218       C2128   1.434       .  S
C219        C220   1.382       .  A
C219       C2112   1.474       .  S
C220        C221   1.376       .  A
C220        H223   1.082       .  S
C221        C222   1.380       .  A
C221        H224   1.082       .  S
C222       C2096   1.470       .  S
N225        C229   1.355       .  A
N225        C226   1.356       .  A
N225       C2083   1.431       .  S
C226        C227   1.382       .  A
C226       C2067   1.476       .  S
C227        C228   1.377       .  A
C227        H230   1.082       .  S
C228        C229   1.381       .  A
C228        H231   1.082       .  S
C229       C2051   1.474       .  S
N232        C236   1.356       .  A
N232        C233   1.356       .  A
N232       C2035   1.433       .  S
C233        C234   1.381       .  A
C233       C2016   1.475       .  S
C234        C235   1.376       .  A
C234        H237   1.082       .  S
C235        C236   1.381       .  A
C235        H238   1.082       .  S
C236       C2000   1.476       .  S
O239       Ni247   1.917   1_545  S
O239        C249   1.281       .  A
O240       Ni247   1.914       .  S
O240        C250   1.280       .  A
O241       Ni247   1.922   1_545  S
O241        C251   1.281       .  A
O242       Ni247   1.919       .  S
O242        C252   1.282       .  A
O243       Ni248   1.920       .  S
O243        C252   1.281       .  A
O244       Ni248   1.918   1_545  S
O244        C251   1.281       .  A
O245       Ni248   1.926       .  S
O245        C250   1.283       .  A
O246       Ni248   1.922   1_545  S
O246        C249   1.281       .  A
Ni247      Ni248   2.390       .  S
C249       C2080   1.470       .  S
C250       C2131   1.470       .  S
C251       C2032   1.471       .  S
C252       C2179   1.471       .  S
N253        C257   1.353       .  A
N253        C254   1.355       .  A
N253       C1984   1.435       .  S
C254        C255   1.381       .  A
C254       C1952   1.469       .  S
C255        C256   1.375       .  A
C255        H258   1.082       .  S
C256        C257   1.383       .  A
C256        H259   1.082       .  S
C257       C1968   1.471       .  S
N260        C264   1.356       .  A
N260        C261   1.356       .  A
N260       C1936   1.434       .  S
C261        C262   1.384       .  A
C261       C1904   1.477       .  S
C262        C263   1.376       .  A
C262        H265   1.082       .  S
C263        C264   1.380       .  A
C263        H266   1.082       .  S
C264       C1920   1.474       .  S
N267        C271   1.356       .  A
N267        C268   1.353       .  A
N267       C1888   1.436       .  S
C268        C269   1.379       .  A
C268       C1856   1.466       .  S
C269        C270   1.375       .  A
C269        H272   1.082       .  S
C270        C271   1.384       .  A
C270        H273   1.082       .  S
C271       C1875   1.473       .  S
N274        C278   1.355       .  A
N274        C275   1.355       .  A
N274       C1840   1.434       .  S
C275        C276   1.383       .  A
C275       C1827   1.473       .  S
C276        C277   1.374       .  A
C276        H279   1.082       .  S
C277        C278   1.381       .  A
C277        H280   1.082       .  S
C278       C1811   1.471       .  S
O281       Ni289   1.918   1_554  S
O281        C291   1.281       .  A
O282       Ni289   1.917       .  S
O282        C292   1.280       .  A
O283       Ni289   1.922       .  S
O283        C293   1.281       .  A
O284       Ni289   1.920   1_554  S
O284        C294   1.282       .  A
O285       Ni290   1.924   1_554  S
O285        C294   1.281       .  A
O286       Ni290   1.925       .  S
O286        C293   1.282       .  A
O287       Ni290   1.922       .  S
O287        C292   1.282       .  A
O288       Ni290   1.924   1_554  S
O288        C291   1.281       .  A
Ni289      Ni290   2.389       .  S
C291       C1891   1.473       .  S
C292       C1939   1.471       .  S
C293       C1987   1.475       .  S
C294       C1843   1.474       .  S
N295        C299   1.356       .  A
N295        C296   1.357       .  A
N295       C1795   1.436       .  S
C296        C297   1.381       .  A
C296       C1776   1.472       .  S
C297        C298   1.372       .  A
C297        H300   1.082       .  S
C298        C299   1.382       .  A
C298        H301   1.082       .  S
C299       C1760   1.473       .  S
N302        C306   1.355       .  A
N302        C303   1.353       .  A
N302       C1744   1.431       .  S
C303        C304   1.381       .  A
C303       C1731   1.472       .  S
C304        C305   1.378       .  A
C304        H307   1.082       .  S
C305        C306   1.382       .  A
C305        H308   1.082       .  S
C306       C1712   1.475       .  S
N309        C313   1.356       .  A
N309        C310   1.355       .  A
N309       C1696   1.435       .  S
C310        C311   1.380       .  A
C310       C1667   1.468       .  S
C311        C312   1.374       .  A
C311        H314   1.082       .  S
C312        C313   1.383       .  A
C312        H315   1.082       .  S
C313       C1683   1.474       .  S
N316        C320   1.352       .  A
N316        C317   1.355       .  A
N316       C1651   1.438       .  S
C317        C318   1.383       .  A
C317       C1632   1.468       .  S
C318        C319   1.375       .  A
C318        H321   1.082       .  S
C319        C320   1.381       .  A
C319        H322   1.082       .  S
C320       C1619   1.467       .  S
O323       Ni331   1.925       .  S
O323        C333   1.283       .  A
O324       Ni331   1.924   1_554  S
O324        C334   1.281       .  A
O325       Ni331   1.925       .  S
O325        C335   1.282       .  A
O326       Ni331   1.922   1_554  S
O326        C336   1.282       .  A
O327       Ni332   1.913   1_554  S
O327        C336   1.280       .  A
O328       Ni332   1.910       .  S
O328        C335   1.279       .  A
O329       Ni332   1.919   1_554  S
O329        C334   1.282       .  A
O330       Ni332   1.916       .  S
O330        C333   1.280       .  A
Ni331      Ni332   2.390       .  S
C333       C1792   1.472       .  S
C334       C1648   1.474       .  S
C335       C1747   1.467       .  S
C336       C1699   1.469       .  S
N337        C341   1.356       .  A
N337        C338   1.356       .  A
N337       C1600   1.438       .  S
C338        C339   1.384       .  A
C338       C1584   1.475       .  S
C339        C340   1.374       .  A
C339        H342   1.082       .  S
C340        C341   1.379       .  A
C340        H343   1.082       .  S
C341       C1568   1.467       .  S
N344        C348   1.354       .  A
N344        C345   1.352       .  A
N344       C1552   1.430       .  S
C345        C346   1.381       .  A
C345       C1520   1.472       .  S
C346        C347   1.379       .  A
C346        H349   1.082       .  S
C347        C348   1.382       .  A
C347        H350   1.082       .  S
C348       C1536   1.473       .  S
N351        C355   1.355       .  A
N351        C352   1.354       .  A
N351       C1504   1.432       .  S
C352        C353   1.382       .  A
C352       C1491   1.472       .  S
C353        C354   1.375       .  A
C353        H356   1.082       .  S
C354        C355   1.380       .  A
C354        H357   1.082       .  S
C355       C1472   1.470       .  S
N358        C362   1.353       .  A
N358        C359   1.353       .  A
N358       C1459   1.432       .  S
C359        C360   1.385       .  A
C359       C1424   1.475       .  S
C360        C361   1.376       .  A
C360        H363   1.082       .  S
C361        C362   1.379       .  A
C361        H364   1.082       .  S
C362       C1440   1.466       .  S
O365       Ni373   1.916   1_455  S
O365        C375   1.280       .  A
O366       Ni373   1.920       .  S
O366        C376   1.282       .  A
O367       Ni373   1.920   1_455  S
O367        C377   1.281       .  A
O368       Ni373   1.917       .  S
O368        C378   1.280       .  A
O369       Ni374   1.915       .  S
O369        C378   1.280       .  A
O370       Ni374   1.914   1_455  S
O370        C377   1.280       .  A
O371       Ni374   1.917       .  S
O371        C376   1.280       .  A
O372       Ni374   1.916   1_455  S
O372        C375   1.281       .  A
Ni373      Ni374   2.391       .  S
C375       C1456   1.466       .  S
C376       C1603   1.470       .  S
C377       C1507   1.467       .  S
C378       C1555   1.465       .  S
N379        C383   1.352       .  A
N379        C380   1.352       .  A
N379       C1408   1.432       .  S
C380        C381   1.380       .  A
C380       C1392   1.468       .  S
C381        C382   1.377       .  A
C381        H384   1.082       .  S
C382        C383   1.383       .  A
C382        H385   1.082       .  S
C383       C1379   1.471       .  S
N386        C390   1.356       .  A
N386        C387   1.352       .  A
N386       C1363   1.432       .  S
C387        C388   1.381       .  A
C387       C1344   1.470       .  S
C388        C389   1.375       .  A
C388        H391   1.082       .  S
C389        C390   1.384       .  A
C389        H392   1.082       .  S
C390       C1328   1.477       .  S
N393        C397   1.354       .  A
N393        C394   1.358       .  A
N393       C1312   1.432       .  S
C394        C395   1.381       .  A
C394       C1299   1.477       .  S
C395        C396   1.378       .  A
C395        H398   1.082       .  S
C396        C397   1.383       .  A
C396        H399   1.082       .  S
C397       C1283   1.478       .  S
N400        C404   1.356       .  A
N400        C401   1.354       .  A
N400       C1267   1.434       .  S
C401        C402   1.384       .  A
C401       C1251   1.475       .  S
C402        C403   1.375       .  A
C402        H405   1.082       .  S
C403        C404   1.380       .  A
C403        H406   1.082       .  S
C404       C1232   1.472       .  S
O407       Ni415   1.918   1_556  S
O407        C417   1.281       .  A
O408       Ni415   1.917       .  S
O408        C418   1.281       .  A
O409       Ni415   1.915       .  S
O409        C419   1.280       .  A
O410       Ni415   1.915   1_556  S
O410        C420   1.280       .  A
O411       Ni416   1.921   1_556  S
O411        C420   1.282       .  A
O412       Ni416   1.924       .  S
O412        C419   1.282       .  A
O413       Ni416   1.915       .  S
O413        C418   1.280       .  A
O414       Ni416   1.918   1_556  S
O414        C417   1.281       .  A
Ni415      Ni416   2.391       .  S
C417       C1360   1.469       .  S
C418       C1315   1.467       .  S
C419       C1264   1.470       .  S
C420       C1411   1.469       .  S
N421        C425   1.352       .  A
N421        C422   1.352       .  A
N421       C1216   1.429       .  S
C422        C423   1.382       .  A
C422       C1187   1.473       .  S
C423        C424   1.381       .  A
C423        H426   1.082       .  S
C424        C425   1.382       .  A
C424        H427   1.082       .  S
C425       C1200   1.474       .  S
N428        C432   1.354       .  A
N428        C429   1.356       .  A
N428       C1168   1.434       .  S
C429        C430   1.381       .  A
C429       C1139   1.472       .  S
C430        C431   1.376       .  A
C430        H433   1.082       .  S
C431        C432   1.380       .  A
C431        H434   1.082       .  S
C432       C1155   1.470       .  S
N435        C439   1.354       .  A
N435        C436   1.354       .  A
N435       C1120   1.435       .  S
C436        C437   1.381       .  A
C436       C1091   1.469       .  S
C437        C438   1.374       .  A
C437        H440   1.082       .  S
C438        C439   1.382       .  A
C438        H441   1.082       .  S
C439       C1107   1.469       .  S
N442        C446   1.353       .  A
N442        C443   1.353       .  A
N442       C1072   1.432       .  S
C443        C444   1.379       .  A
C443       C1043   1.468       .  S
C444        C445   1.378       .  A
C444        H447   1.082       .  S
C445        C446   1.384       .  A
C445        H448   1.082       .  S
C446       C1059   1.474       .  S
O449       Ni457   1.907       .  S
O449        C459   1.279       .  A
O450       Ni457   1.908   1_655  S
O450        C460   1.278       .  A
O451       Ni457   1.918   1_655  S
O451        C461   1.281       .  A
O452       Ni457   1.914       .  S
O452        C462   1.280       .  A
O453       Ni458   1.923       .  S
O453        C462   1.282       .  A
O454       Ni458   1.921   1_655  S
O454        C461   1.281       .  A
O455       Ni458   1.920   1_655  S
O455        C460   1.282       .  A
O456       Ni458   1.921       .  S
O456        C459   1.282       .  A
Ni457      Ni458   2.392       .  S
C459       C1075   1.465       .  S
C460       C1219   1.463       .  S
C461       C1171   1.471       .  S
C462       C1123   1.469       .  S
N463        C467   1.358       .  A
N463        C464   1.357       .  A
N463       C1024   1.437       .  S
C464        C465   1.380       .  A
C464        C992   1.472       .  S
C465        C466   1.374       .  A
C465        H468   1.082       .  S
C466        C467   1.383       .  A
C466        H469   1.082       .  S
C467       C1008   1.476       .  S
N470        C474   1.355       .  A
N470        C471   1.356       .  A
N470        C976   1.436       .  S
C471        C472   1.386       .  A
C471        C944   1.478       .  S
C472        C473   1.374       .  A
C472        H475   1.082       .  S
C473        C474   1.378       .  A
C473        H476   1.082       .  S
C474        C960   1.469       .  S
N477        C481   1.357       .  A
N477        C478   1.355       .  A
N477        C931   1.431       .  S
C478        C479   1.383       .  A
C478        C899   1.478       .  S
C479        C480   1.375       .  A
C479        H482   1.082       .  S
C480        C481   1.381       .  A
C480        H483   1.082       .  S
C481        C912   1.477       .  S
N484        C488   1.355       .  A
N484        C485   1.355       .  A
N484        C880   1.438       .  S
C485        C486   1.382       .  A
C485        C848   1.470       .  S
C486        C487   1.373       .  A
C486        H489   1.082       .  S
C487        C488   1.383       .  A
C487        H490   1.082       .  S
C488        C864   1.471       .  S
O491       Ni499   1.923       .  S
O491        C501   1.282       .  A
O492       Ni499   1.924   1_655  S
O492        C502   1.283       .  A
O493       Ni499   1.920   1_655  S
O493        C503   1.281       .  A
O494       Ni499   1.919       .  S
O494        C504   1.281       .  A
O495       Ni500   1.917   1_455  S
O495        C504   1.281       .  A
O496       Ni500   1.915       .  S
O496        C503   1.280       .  A
O497       Ni500   1.923       .  S
O497        C502   1.281       .  A
O498       Ni500   1.927   1_455  S
O498        C501   1.283       .  A
Ni499      Ni500   2.390   1_455  S
C501        C883   1.477       .  S
C502       C1027   1.476       .  S
C503        C979   1.468       .  S
C504        C928   1.469       .  S
O505       Ni513   1.927   1_455  S
O505        C515   1.283       .  A
O506       Ni513   1.926       .  S
O506        C516   1.282       .  A
O507       Ni513   1.918       .  S
O507        C517   1.280       .  A
O508       Ni513   1.918   1_455  S
O508        C518   1.280       .  A
O509       Ni514   1.914   1_455  S
O509        C518   1.281       .  A
O510       Ni514   1.918       .  S
O510        C517   1.282       .  A
O511       Ni514   1.912       .  S
O511        C516   1.280       .  A
O512       Ni514   1.914   1_455  S
O512        C515   1.280       .  A
Ni513      Ni514   2.391       .  S
C515        C896   1.471       .  S
C516       C1184   1.471       .  S
C517        C995   1.469       .  S
C518       C1088   1.467       .  S
O519       Ni527   1.917       .  S
O519        C529   1.280       .  A
O520       Ni527   1.919       .  S
O520        C530   1.280       .  A
O521       Ni527   1.923       .  S
O521        C531   1.281       .  A
O522       Ni527   1.932       .  S
O522        C532   1.284       .  A
O523       Ni528   1.909       .  S
O523        C532   1.279       .  A
O524       Ni528   1.917       .  S
O524        C531   1.281       .  A
O525       Ni528   1.920       .  S
O525        C530   1.282       .  A
O526       Ni528   1.922       .  S
O526        C529   1.282       .  A
Ni527      Ni528   2.390       .  S
C529       C3024   1.470       .  S
C530        C963   1.467       .  S
C531       C2976   1.471       .  S
C532       C1011   1.471       .  S
O533       Ni541   1.907       .  S
O533        C543   1.279       .  A
O534       Ni541   1.912       .  S
O534        C544   1.279       .  A
O535       Ni541   1.914       .  S
O535        C545   1.281       .  A
O536       Ni541   1.916       .  S
O536        C546   1.281       .  A
O537       Ni542   1.923       .  S
O537        C546   1.281       .  A
O538       Ni542   1.921       .  S
O538        C545   1.281       .  A
O539       Ni542   1.922       .  S
O539        C544   1.282       .  A
O540       Ni542   1.923       .  S
O540        C543   1.281       .  A
Ni541      Ni542   2.392       .  S
C543       C2640   1.465       .  S
C544        C867   1.466       .  S
C545       C2595   1.468       .  S
C546        C915   1.470       .  S
O547       Ni555   1.931       .  S
O547        C557   1.283       .  A
O548       Ni555   1.931       .  S
O548        C558   1.283       .  A
O549       Ni555   1.920       .  S
O549        C559   1.280       .  A
O550       Ni555   1.919       .  S
O550        C560   1.281       .  A
O551       Ni556   1.925       .  S
O551        C560   1.283       .  A
O552       Ni556   1.920       .  S
O552        C559   1.282       .  A
O553       Ni556   1.901       .  S
O553        C558   1.277       .  A
O554       Ni556   1.904       .  S
O554        C557   1.278       .  A
Ni555      Ni556   2.390       .  S
C557       C1203   1.469       .  S
C558       C1248   1.464       .  S
C559       C1152   1.472       .  S
C560       C1296   1.474       .  S
O561       Ni569   1.920       .  S
O561        C571   1.281       .  A
O562       Ni569   1.921       .  S
O562        C572   1.281       .  A
O563       Ni569   1.920       .  S
O563        C573   1.281       .  A
O564       Ni569   1.918       .  S
O564        C574   1.282       .  A
O565       Ni570   1.910       .  S
O565        C574   1.278       .  A
O566       Ni570   1.907       .  S
O566        C573   1.278       .  A
O567       Ni570   1.915       .  S
O567        C572   1.281       .  A
O568       Ni570   1.919       .  S
O568        C571   1.281       .  A
Ni569      Ni570   2.392       .  S
C571       C1056   1.471       .  S
C572       C1680   1.468       .  S
C573       C1104   1.462       .  S
C574       C1635   1.464       .  S
O575       Ni583   1.925       .  S
O575        C585   1.282       .  A
O576       Ni583   1.924   1_554  S
O576        C586   1.282       .  A
O577       Ni583   1.930   1_554  S
O577        C587   1.283       .  A
O578       Ni583   1.928       .  S
O578        C588   1.283       .  A
O579       Ni584   1.912       .  S
O579        C588   1.279       .  A
O580       Ni584   1.913   1_554  S
O580        C587   1.280       .  A
O581       Ni584   1.909   1_554  S
O581        C586   1.280       .  A
O582       Ni584   1.908       .  S
O582        C585   1.279       .  A
Ni583      Ni584   2.391       .  S
C585       C1376   1.467       .  S
C586       C1808   1.468       .  S
C587       C1280   1.472       .  S
C588       C1907   1.470       .  S
O589       Ni597   1.908       .  S
O589        C599   1.279       .  A
O590       Ni597   1.908       .  S
O590        C600   1.279       .  A
O591       Ni597   1.917       .  S
O591        C601   1.281       .  A
O592       Ni597   1.912       .  S
O592        C602   1.280       .  A
O593       Ni598   1.923       .  S
O593        C602   1.281       .  A
O594       Ni598   1.922       .  S
O594        C601   1.281       .  A
O595       Ni598   1.926       .  S
O595        C600   1.282       .  A
O596       Ni598   1.926       .  S
O596        C599   1.282       .  A
Ni597      Ni598   2.391       .  S
C599       C1587   1.467       .  S
C600       C1347   1.468       .  S
C601       C1539   1.471       .  S
C602       C1395   1.469       .  S
O603       Ni611   1.923       .  S
O603        C613   1.281       .  A
O604       Ni611   1.925   1_455  S
O604        C614   1.282       .  A
O605       Ni611   1.919   1_455  S
O605        C615   1.281       .  A
O606       Ni611   1.922       .  S
O606        C616   1.281       .  A
O607       Ni612   1.911       .  S
O607        C616   1.280       .  A
O608       Ni612   1.910   1_455  S
O608        C615   1.279       .  A
O609       Ni612   1.908   1_455  S
O609        C614   1.279       .  A
O610       Ni612   1.910       .  S
O610        C613   1.280       .  A
Ni611      Ni612   2.392       .  S
C613        C947   1.466       .  S
C614       C1475   1.468       .  S
C615        C851   1.464       .  S
C616       C1571   1.467       .  S
O617       Ni625   1.916       .  S
O617        C627   1.281       .  A
O618       Ni625   1.915       .  S
O618        C628   1.281       .  A
O619       Ni625   1.906       .  S
O619        C629   1.279       .  A
O620       Ni625   1.912       .  S
O620        C630   1.280       .  A
O621       Ni626   1.923       .  S
O621        C630   1.282       .  A
O622       Ni626   1.927       .  S
O622        C629   1.282       .  A
O623       Ni626   1.918       .  S
O623        C628   1.281       .  A
O624       Ni626   1.917       .  S
O624        C627   1.280       .  A
Ni625      Ni626   2.391       .  S
C627       C1443   1.468       .  S
C628       C1779   1.468       .  S
C629       C1488   1.468       .  S
C630       C1728   1.469       .  S
O631       Ni639   1.926       .  S
O631        C641   1.282       .  A
O632       Ni639   1.923   1_554  S
O632        C642   1.281       .  A
O633       Ni639   1.921   1_554  S
O633        C643   1.281       .  A
O634       Ni639   1.921       .  S
O634        C644   1.281       .  A
O635       Ni640   1.909       .  S
O635        C644   1.279       .  A
O636       Ni640   1.910   1_554  S
O636        C643   1.280       .  A
O637       Ni640   1.909   1_554  S
O637        C642   1.280       .  A
O638       Ni640   1.906       .  S
O638        C641   1.279       .  A
Ni639      Ni640   2.392       .  S
C641       C1955   1.468       .  S
C642       C1664   1.468       .  S
C643       C1859   1.467       .  S
C644       C1763   1.464       .  S
O645       Ni653   1.921       .  S
O645        C655   1.281       .  A
O646       Ni653   1.924       .  S
O646        C656   1.282       .  A
O647       Ni653   1.922       .  S
O647        C657   1.281       .  A
O648       Ni653   1.924       .  S
O648        C658   1.282       .  A
O649       Ni654   1.920       .  S
O649        C658   1.282       .  A
O650       Ni654   1.919       .  S
O650        C657   1.281       .  A
O651       Ni654   1.913       .  S
O651        C656   1.280       .  A
O652       Ni654   1.917       .  S
O652        C655   1.281       .  A
Ni653      Ni654   2.390       .  S
C655       C2019   1.471       .  S
C656       C1971   1.468       .  S
C657       C2064   1.472       .  S
C658       C1923   1.474       .  S
O659       Ni667   1.910       .  S
O659        C669   1.280       .  A
O660       Ni667   1.910       .  S
O660        C670   1.279       .  A
O661       Ni667   1.920       .  S
O661        C671   1.282       .  A
O662       Ni667   1.919       .  S
O662        C672   1.281       .  A
O663       Ni668   1.918       .  S
O663        C672   1.281       .  A
O664       Ni668   1.917       .  S
O664        C671   1.280       .  A
O665       Ni668   1.924       .  S
O665        C670   1.282       .  A
O666       Ni668   1.925       .  S
O666        C669   1.282       .  A
Ni667      Ni668   2.391       .  S
C669       C2400   1.468       .  S
C670       C1872   1.466       .  S
C671       C2451   1.469       .  S
C672       C1824   1.468       .  S
O673       Ni681   1.915       .  S
O673        C683   1.280       .  A
O674       Ni681   1.911   1_545  S
O674        C684   1.280       .  A
O675       Ni681   1.927   1_545  S
O675        C685   1.282       .  A
O676       Ni681   1.926       .  S
O676        C686   1.283       .  A
O677       Ni682   1.913       .  S
O677        C686   1.279       .  A
O678       Ni682   1.913   1_545  S
O678        C685   1.281       .  A
O679       Ni682   1.919   1_545  S
O679        C684   1.281       .  A
O680       Ni682   1.918       .  S
O680        C683   1.281       .  A
Ni681      Ni682   2.391       .  S
C683       C2147   1.466       .  S
C684       C2576   1.465       .  S
C685       C2048   1.473       .  S
C686       C2672   1.468       .  S
O687       Ni695   1.928       .  S
O687        C697   1.283       .  A
O688       Ni695   1.927       .  S
O688        C698   1.283       .  A
O689       Ni695   1.922       .  S
O689        C699   1.281       .  A
O690       Ni695   1.927       .  S
O690        C700   1.282       .  A
O691       Ni696   1.911       .  S
O691        C700   1.280       .  A
O692       Ni696   1.913       .  S
O692        C699   1.280       .  A
O693       Ni696   1.909       .  S
O693        C698   1.279       .  A
O694       Ni696   1.908       .  S
O694        C697   1.279       .  A
Ni695      Ni696   2.391       .  S
C697       C2163   1.468       .  S
C698       C2307   1.469       .  S
C699       C2115   1.468       .  S
C700       C2355   1.471       .  S
O701       Ni709   1.922   1_554  S
O701        C711   1.282       .  A
O702       Ni709   1.923       .  S
O702        C712   1.282       .  A
O703       Ni709   1.918       .  S
O703        C713   1.281       .  A
O704       Ni709   1.916   1_554  S
O704        C714   1.281       .  A
O705       Ni710   1.914   1_554  S
O705        C714   1.280       .  A
O706       Ni710   1.914       .  S
O706        C713   1.280       .  A
O707       Ni710   1.912       .  S
O707        C712   1.280       .  A
O708       Ni710   1.911   1_554  S
O708        C711   1.279       .  A
Ni709      Ni710   2.392       .  S
C711       C2240   1.466       .  S
C712       C1715   1.468       .  S
C713       C2339   1.466       .  S
C714       C1616   1.464       .  S
O715       Ni723   1.919       .  S
O715        C725   1.281       .  A
O716       Ni723   1.918       .  S
O716        C726   1.281       .  A
O717       Ni723   1.912       .  S
O717        C727   1.280       .  A
O718       Ni723   1.916       .  S
O718        C728   1.280       .  A
O719       Ni724   1.910       .  S
O719        C728   1.280       .  A
O720       Ni724   1.914       .  S
O720        C727   1.280       .  A
O721       Ni724   1.923       .  S
O721        C726   1.282       .  A
O722       Ni724   1.926       .  S
O722        C725   1.283       .  A
Ni723      Ni724   2.391       .  S
C725       C2547   1.474       .  S
C726       C2208   1.471       .  S
C727       C2496   1.462       .  S
C728       C2256   1.463       .  S
O729       Ni737   1.913       .  S
O729        C739   1.280       .  A
O730       Ni737   1.915   1_565  S
O730        C740   1.280       .  A
O731       Ni737   1.910   1_565  S
O731        C741   1.279       .  A
O732       Ni737   1.913       .  S
O732        C742   1.280       .  A
O733       Ni738   1.927       .  S
O733        C742   1.282       .  A
O734       Ni738   1.928   1_565  S
O734        C741   1.283       .  A
O735       Ni738   1.921   1_565  S
O735        C740   1.282       .  A
O736       Ni738   1.926       .  S
O736        C739   1.282       .  A
Ni737      Ni738   2.391       .  S
C739       C2627   1.471       .  S
C740       C2528   1.469       .  S
C741       C2723   1.470       .  S
C742       C2435   1.471       .  S
O743       Ni751   1.924       .  S
O743        C753   1.282       .  A
O744       Ni751   1.925       .  S
O744        C754   1.282       .  A
O745       Ni751   1.924       .  S
O745        C755   1.282       .  A
O746       Ni751   1.923       .  S
O746        C756   1.282       .  A
O747       Ni752   1.908       .  S
O747        C756   1.279       .  A
O748       Ni752   1.911       .  S
O748        C755   1.279       .  A
O749       Ni752   1.916       .  S
O749        C754   1.281       .  A
O750       Ni752   1.917       .  S
O750        C753   1.280       .  A
Ni751      Ni752   2.391       .  S
C753       C2787   1.471       .  S
C754       C2736   1.471       .  S
C755       C2832   1.467       .  S
C756       C2691   1.466       .  S
O757       Ni765   1.918       .  S
O757        C767   1.281       .  A
O758       Ni765   1.911   1_655  S
O758        C768   1.280       .  A
O759       Ni765   1.913   1_655  S
O759        C769   1.280       .  A
O760       Ni765   1.914       .  S
O760        C770   1.281       .  A
O761       Ni766   1.918       .  S
O761        C770   1.280       .  A
O762       Ni766   1.921   1_655  S
O762        C769   1.281       .  A
O763       Ni766   1.921   1_655  S
O763        C768   1.281       .  A
O764       Ni766   1.914       .  S
O764        C767   1.281       .  A
Ni765      Ni766   2.392       .  S
C767       C2819   1.467       .  S
C768       C1136   1.467       .  S
C769       C2915   1.466       .  S
C770       C1040   1.467       .  S
O771       Ni779   1.906       .  S
O771        C781   1.279       .  A
O772       Ni779   1.911       .  S
O772        C782   1.280       .  A
O773       Ni779   1.914       .  S
O773        C783   1.280       .  A
O774       Ni779   1.913       .  S
O774        C784   1.280       .  A
O775       Ni780   1.920       .  S
O775        C784   1.281       .  A
O776       Ni780   1.919       .  S
O776        C783   1.281       .  A
O777       Ni780   1.923       .  S
O777        C782   1.282       .  A
O778       Ni780   1.927       .  S
O778        C781   1.282       .  A
Ni779      Ni780   2.391       .  S
C781       C3120   1.469       .  S
C782       C2883   1.468       .  S
C783       C3072   1.468       .  S
C784       C2931   1.465       .  S
O785       Ni793   1.919   1_545  S
O785        C795   1.281       .  A
O786       Ni793   1.918       .  S
O786        C796   1.280       .  A
O787       Ni793   1.923       .  S
O787        C797   1.282       .  A
O788       Ni793   1.924   1_545  S
O788        C798   1.282       .  A
O789       Ni794   1.907   1_545  S
O789        C798   1.279       .  A
O790       Ni794   1.907       .  S
O790        C797   1.278       .  A
O791       Ni794   1.912       .  S
O791        C796   1.281       .  A
O792       Ni794   1.914   1_545  S
O792        C795   1.281       .  A
Ni793      Ni794   2.392       .  S
C795       C3011   1.468       .  S
C796       C2483   1.465       .  S
C797       C3107   1.464       .  S
C798       C2387   1.467       .  S
O799       Ni807   1.929   1_455  S
O799        C809   1.283       .  A
O800       Ni807   1.926       .  S
O800        C810   1.282       .  A
O801       Ni807   1.928       .  S
O801        C811   1.283       .  A
O802       Ni807   1.928   1_455  S
O802        C812   1.282       .  A
O803       Ni808   1.905       .  S
O803        C812   1.279       .  A
O804       Ni808   1.905   1_655  S
O804        C811   1.279       .  A
O805       Ni808   1.907   1_655  S
O805        C810   1.279       .  A
O806       Ni808   1.907       .  S
O806        C809   1.279       .  A
Ni807      Ni808   2.391   1_655  S
C809       C2771   1.468       .  S
C810       C1523   1.469       .  S
C811       C2864   1.467       .  S
C812       C1427   1.466       .  S
O813       Ni821   1.907   1_545  S
O813        C823   1.279       .  A
O814       Ni821   1.908       .  S
O814        C824   1.279       .  A
O815       Ni821   1.916       .  S
O815        C825   1.281       .  A
O816       Ni821   1.916   1_545  S
O816        C826   1.281       .  A
O817       Ni822   1.927   1_545  S
O817        C826   1.282       .  A
O818       Ni822   1.923       .  S
O818        C825   1.282       .  A
O819       Ni822   1.925       .  S
O819        C824   1.282       .  A
O820       Ni822   1.926   1_545  S
O820        C823   1.282       .  A
Ni821      Ni822   2.391       .  S
C823       C2963   1.467       .  S
C824       C2099   1.468       .  S
C825       C3059   1.470       .  S
C826       C2003   1.473       .  S
O827       Ni835   1.926   1_556  S
O827        C837   1.283       .  A
O828       Ni835   1.922       .  S
O828        C838   1.281       .  A
O829       Ni835   1.926       .  S
O829        C839   1.282       .  A
O830       Ni835   1.928   1_556  S
O830        C840   1.283       .  A
O831       Ni836   1.911   1_556  S
O831        C840   1.279       .  A
O832       Ni836   1.914       .  S
O832        C839   1.280       .  A
O833       Ni836   1.918       .  S
O833        C838   1.282       .  A
O834       Ni836   1.915   1_556  S
O834        C837   1.280       .  A
Ni835      Ni836   2.390       .  S
C837       C2288   1.472       .  S
C838       C1235   1.472       .  S
C839       C2192   1.472       .  S
C840       C1331   1.469       .  S
C841        C846   1.380       .  A
C841        C842   1.404       .  A
C841        O847   1.319       .  A
C842        C843   1.403       .  A
C842        H853   1.082       .  S
C843        C852   1.363       .  A
C843        C844   1.381       .  A
C844        C845   1.399       .  A
C844        O850   1.315       .  A
C845        C846   1.398       .  A
C845        H854   1.082       .  S
C846        C849   1.356       .  A
O847        C848   1.330       .  A
C848        C849   1.389       .  A
C849        H855   1.083       .  S
O850        C851   1.328       .  A
C851        C852   1.391       .  A
C852        H856   1.082       .  S
C857        C862   1.381       .  A
C857        C858   1.404       .  A
C857        O863   1.321       .  A
C858        C859   1.405       .  A
C858        H869   1.082       .  S
C859        C868   1.363       .  A
C859        C860   1.381       .  A
C860        C861   1.400       .  A
C860        O866   1.316       .  A
C861        C862   1.400       .  A
C861        H870   1.082       .  S
C862        C865   1.356       .  A
O863        C864   1.331       .  A
C864        C865   1.390       .  A
C865        H871   1.083       .  S
O866        C867   1.329       .  A
C867        C868   1.391       .  A
C868        H872   1.082       .  S
C873        C878   1.381       .  A
C873        C874   1.407       .  A
C873        O879   1.322       .  A
C874        C875   1.407       .  A
C874        H885   1.077       .  S
C875        C884   1.366       .  A
C875        C876   1.380       .  A
C876        C877   1.405       .  A
C876        O882   1.321       .  A
C877        C878   1.404       .  A
C877        H886   1.080       .  S
C878        C881   1.363       .  A
O879        C880   1.331       .  A
C880        C881   1.390       .  A
C881        H887   1.081       .  S
O882        C883   1.332       .  A
C883        C884   1.394       .  A
C884        H888   1.078       .  S
C889        C894   1.381       .  A
C889        C890   1.400       .  A
C889        O895   1.317       .  A
C890        C891   1.400       .  A
C890        H901   1.082       .  S
C891        C900   1.356       .  A
C891        C892   1.380       .  A
C892        C893   1.408       .  A
C892        O898   1.324       .  A
C893        C894   1.408       .  A
C893        H902   1.082       .  S
C894        C897   1.367       .  A
O895        C896   1.329       .  A
C896        C897   1.394       .  A
C897        H903   1.082       .  S
O898        C899   1.333       .  A
C899        C900   1.390       .  A
C900        H904   1.083       .  S
C905        C910   1.379       .  A
C905        C906   1.402       .  A
C905        O911   1.316       .  A
C906        C907   1.401       .  A
C906        H917   1.082       .  S
C907        C916   1.360       .  A
C907        C908   1.380       .  A
C908        C909   1.406       .  A
C908        O914   1.321       .  A
C909        C910   1.405       .  A
C909        H918   1.082       .  S
C910        C913   1.366       .  A
O911        C912   1.331       .  A
C912        C913   1.394       .  A
C913        H919   1.080       .  S
O914        C915   1.332       .  A
C915        C916   1.390       .  A
C916        H920   1.082       .  S
C921        C926   1.381       .  A
C921        C922   1.404       .  A
C921        O927   1.320       .  A
C922        C923   1.403       .  A
C922        H933   1.082       .  S
C923        C932   1.363       .  A
C923        C924   1.382       .  A
C924        C925   1.402       .  A
C924        O930   1.318       .  A
C925        C926   1.401       .  A
C925        H934   1.082       .  S
C926        C929   1.361       .  A
O927        C928   1.331       .  A
C928        C929   1.391       .  A
C929        H935   1.083       .  S
O930        C931   1.328       .  A
C931        C932   1.389       .  A
C932        H936   1.082       .  S
C937        C942   1.380       .  A
C937        C938   1.408       .  A
C937        O943   1.324       .  A
C938        C939   1.408       .  A
C938        H949   1.082       .  S
C939        C948   1.367       .  A
C939        C940   1.381       .  A
C940        C941   1.396       .  A
C940        O946   1.314       .  A
C941        C942   1.396       .  A
C941        H950   1.082       .  S
C942        C945   1.352       .  A
O943        C944   1.334       .  A
C944        C945   1.389       .  A
C945        H951   1.082       .  S
O946        C947   1.327       .  A
C947        C948   1.394       .  A
C948        H952   1.082       .  S
C953        C958   1.381       .  A
C953        C954   1.402       .  A
C953        O959   1.319       .  A
C954        C955   1.402       .  A
C954        H965   1.083       .  S
C955        C964   1.360       .  A
C955        C956   1.381       .  A
C956        C957   1.404       .  A
C956        O962   1.320       .  A
C957        C958   1.404       .  A
C957        H966   1.083       .  S
C958        C961   1.361       .  A
O959        C960   1.329       .  A
C960        C961   1.390       .  A
C961        H967   1.082       .  S
O962        C963   1.331       .  A
C963        C964   1.390       .  A
C964        H968   1.083       .  S
C969        C974   1.381       .  A
C969        C970   1.406       .  A
C969        O975   1.321       .  A
C970        C971   1.405       .  A
C970        H981   1.082       .  S
C971        C980   1.364       .  A
C971        C972   1.381       .  A
C972        C973   1.400       .  A
C972        O978   1.316       .  A
C973        C974   1.399       .  A
C973        H982   1.082       .  S
C974        C977   1.357       .  A
O975        C976   1.331       .  A
C976        C977   1.388       .  A
C977        H983   1.082       .  S
O978        C979   1.329       .  A
C979        C980   1.393       .  A
C980        H984   1.082       .  S
C985        C990   1.380       .  A
C985        C986   1.402       .  A
C985        O991   1.316       .  A
C986        C987   1.400       .  A
C986        H997   1.082       .  S
C987        C996   1.360       .  A
C987        C988   1.380       .  A
C988        C989   1.406       .  A
C988        O994   1.320       .  A
C989        C990   1.405       .  A
C989        H998   1.082       .  S
C990        C993   1.365       .  A
O991        C992   1.330       .  A
C992        C993   1.392       .  A
C993        H999   1.081       .  S
O994        C995   1.332       .  A
C995        C996   1.390       .  A
C996       H1000   1.083       .  S
C1001      C1006   1.380       .  A
C1001      C1002   1.407       .  A
C1001      O1007   1.323       .  A
C1002      C1003   1.407       .  A
C1002      H1013   1.082       .  S
C1003      C1012   1.367       .  A
C1003      C1004   1.380       .  A
C1004      C1005   1.400       .  A
C1004      O1010   1.316       .  A
C1005      C1006   1.400       .  A
C1005      H1014   1.083       .  S
C1006      C1009   1.357       .  A
O1007      C1008   1.332       .  A
C1008      C1009   1.390       .  A
C1009      H1015   1.083       .  S
O1010      C1011   1.330       .  A
C1011      C1012   1.393       .  A
C1012      H1016   1.082       .  S
C1017      C1022   1.381       .  A
C1017      C1018   1.403       .  A
C1017      O1023   1.318       .  A
C1018      C1019   1.402       .  A
C1018      H1029   1.082       .  S
C1019      C1028   1.362       .  A
C1019      C1020   1.380       .  A
C1020      C1021   1.407       .  A
C1020      O1026   1.322       .  A
C1021      C1022   1.406       .  A
C1021      H1030   1.082       .  S
C1022      C1025   1.366       .  A
O1023      C1024   1.329       .  A
C1024      C1025   1.391       .  A
C1025      H1031   1.082       .  S
O1026      C1027   1.333       .  A
C1027      C1028   1.391       .  A
C1028      H1032   1.082       .  S
C1033      C1038   1.381       .  A
C1033      C1034   1.404       .  A
C1033      O1039   1.319       .  A
C1034      C1035   1.403       .  A
C1034      H1045   1.082       .  S
C1035      C1044   1.362       .  A
C1035      C1036   1.381       .  A
C1036      C1037   1.402       .  A
C1036      O1042   1.317       .  A
C1037      C1038   1.401       .  A
C1037      H1046   1.082       .  S
C1038      C1041   1.359       .  A
O1039      C1040   1.331       .  A
C1040      C1041   1.390       .  A
C1041      H1047   1.083       .  S
O1042      C1043   1.329       .  A
C1043      C1044   1.390       .  A
C1044      H1048   1.082       .  S
C1049      C1054   1.381       .  A
C1049      C1050   1.400       .  A
C1049      O1055   1.317       .  A
C1050      C1051   1.399       .  A
C1050      H1061   1.082       .  S
C1051      C1060   1.356       .  A
C1051      C1052   1.380       .  A
C1052      C1053   1.407       .  A
C1052      O1058   1.323       .  A
C1053      C1054   1.407       .  A
C1053      H1062   1.082       .  S
C1054      C1057   1.365       .  A
O1055      C1056   1.329       .  A
C1056      C1057   1.394       .  A
C1057      H1063   1.082       .  S
O1058      C1059   1.333       .  A
C1059      C1060   1.388       .  A
C1060      H1064   1.082       .  S
C1065      C1070   1.382       .  A
C1065      C1066   1.401       .  A
C1065      O1071   1.319       .  A
C1066      C1067   1.401       .  A
C1066      H1077   1.082       .  S
C1067      C1076   1.358       .  A
C1067      C1068   1.381       .  A
C1068      C1069   1.401       .  A
C1068      O1074   1.319       .  A
C1069      C1070   1.401       .  A
C1069      H1078   1.082       .  S
C1070      C1073   1.358       .  A
O1071      C1072   1.329       .  A
C1072      C1073   1.389       .  A
C1073      H1079   1.081       .  S
O1074      C1075   1.330       .  A
C1075      C1076   1.390       .  A
C1076      H1080   1.083       .  S
C1081      C1086   1.380       .  A
C1081      C1082   1.404       .  A
C1081      O1087   1.319       .  A
C1082      C1083   1.403       .  A
C1082      H1093   1.082       .  S
C1083      C1092   1.362       .  A
C1083      C1084   1.380       .  A
C1084      C1085   1.400       .  A
C1084      O1090   1.315       .  A
C1085      C1086   1.399       .  A
C1085      H1094   1.082       .  S
C1086      C1089   1.359       .  A
O1087      C1088   1.331       .  A
C1088      C1089   1.390       .  A
C1089      H1095   1.082       .  S
O1090      C1091   1.329       .  A
C1091      C1092   1.391       .  A
C1092      H1096   1.080       .  S
C1097      C1102   1.381       .  A
C1097      C1098   1.399       .  A
C1097      O1103   1.314       .  A
C1098      C1099   1.398       .  A
C1098      H1109   1.082       .  S
C1099      C1108   1.356       .  A
C1099      C1100   1.380       .  A
C1100      C1101   1.404       .  A
C1100      O1106   1.319       .  A
C1101      C1102   1.404       .  A
C1101      H1110   1.082       .  S
C1102      C1105   1.363       .  A
O1103      C1104   1.328       .  A
C1104      C1105   1.391       .  A
C1105      H1111   1.082       .  S
O1106      C1107   1.330       .  A
C1107      C1108   1.388       .  A
C1108      H1112   1.083       .  S
C1113      C1118   1.381       .  A
C1113      C1114   1.406       .  A
C1113      O1119   1.319       .  A
C1114      C1115   1.405       .  A
C1114      H1125   1.082       .  S
C1115      C1124   1.365       .  A
C1115      C1116   1.381       .  A
C1116      C1117   1.401       .  A
C1116      O1122   1.316       .  A
C1117      C1118   1.400       .  A
C1117      H1126   1.082       .  S
C1118      C1121   1.360       .  A
O1119      C1120   1.330       .  A
C1120      C1121   1.387       .  A
C1121      H1127   1.082       .  S
O1122      C1123   1.329       .  A
C1123      C1124   1.393       .  A
C1124      H1128   1.082       .  S
C1129      C1134   1.380       .  A
C1129      C1130   1.404       .  A
C1129      O1135   1.319       .  A
C1130      C1131   1.403       .  A
C1130      H1141   1.083       .  S
C1131      C1140   1.363       .  A
C1131      C1132   1.380       .  A
C1132      C1133   1.401       .  A
C1132      O1138   1.316       .  A
C1133      C1134   1.400       .  A
C1133      H1142   1.082       .  S
C1134      C1137   1.359       .  A
O1135      C1136   1.331       .  A
C1136      C1137   1.390       .  A
C1137      H1143   1.083       .  S
O1138      C1139   1.330       .  A
C1139      C1140   1.391       .  A
C1140      H1144   1.080       .  S
C1145      C1150   1.380       .  A
C1145      C1146   1.407       .  A
C1145      O1151   1.321       .  A
C1146      C1147   1.406       .  A
C1146      H1157   1.082       .  S
C1147      C1156   1.366       .  A
C1147      C1148   1.380       .  A
C1148      C1149   1.401       .  A
C1148      O1154   1.316       .  A
C1149      C1150   1.400       .  A
C1149      H1158   1.082       .  S
C1150      C1153   1.359       .  A
O1151      C1152   1.333       .  A
C1152      C1153   1.389       .  A
C1153      H1159   1.082       .  S
O1154      C1155   1.329       .  A
C1155      C1156   1.392       .  A
C1156      H1160   1.082       .  S
C1161      C1166   1.382       .  A
C1161      C1162   1.403       .  A
C1161      O1167   1.320       .  A
C1162      C1163   1.403       .  A
C1162      H1173   1.082       .  S
C1163      C1172   1.361       .  A
C1163      C1164   1.380       .  A
C1164      C1165   1.404       .  A
C1164      O1170   1.320       .  A
C1165      C1166   1.403       .  A
C1165      H1174   1.082       .  S
C1166      C1169   1.361       .  A
O1167      C1168   1.329       .  A
C1168      C1169   1.389       .  A
C1169      H1175   1.081       .  S
O1170      C1171   1.331       .  A
C1171      C1172   1.391       .  A
C1172      H1176   1.082       .  S
C1177      C1182   1.380       .  A
C1177      C1178   1.404       .  A
C1177      O1183   1.320       .  A
C1178      C1179   1.403       .  A
C1178      H1189   1.082       .  S
C1179      C1188   1.361       .  A
C1179      C1180   1.380       .  A
C1180      C1181   1.402       .  A
C1180      O1186   1.318       .  A
C1181      C1182   1.402       .  A
C1181      H1190   1.082       .  S
C1182      C1185   1.360       .  A
O1183      C1184   1.331       .  A
C1184      C1185   1.391       .  A
C1185      H1191   1.082       .  S
O1186      C1187   1.330       .  A
C1187      C1188   1.391       .  A
C1188      H1192   1.081       .  S
C1193      C1198   1.380       .  A
C1193      C1194   1.400       .  A
C1193      O1199   1.317       .  A
C1194      C1195   1.400       .  A
C1194      H1205   1.083       .  S
C1195      C1204   1.357       .  A
C1195      C1196   1.381       .  A
C1196      C1197   1.404       .  A
C1196      O1202   1.322       .  A
C1197      C1198   1.405       .  A
C1197      H1206   1.083       .  S
C1198      C1201   1.362       .  A
O1199      C1200   1.330       .  A
C1200      C1201   1.392       .  A
C1201      H1207   1.080       .  S
O1202      C1203   1.331       .  A
C1203      C1204   1.390       .  A
C1204      H1208   1.083       .  S
C1209      C1214   1.382       .  A
C1209      C1210   1.402       .  A
C1209      O1215   1.317       .  A
C1210      C1211   1.401       .  A
C1210      H1221   1.082       .  S
C1211      C1220   1.361       .  A
C1211      C1212   1.381       .  A
C1212      C1213   1.401       .  A
C1212      O1218   1.315       .  A
C1213      C1214   1.400       .  A
C1213      H1222   1.082       .  S
C1214      C1217   1.360       .  A
O1215      C1216   1.328       .  A
C1216      C1217   1.387       .  A
C1217      H1223   1.082       .  S
O1218      C1219   1.329       .  A
C1219      C1220   1.390       .  A
C1220      H1224   1.082       .  S
C1225      C1230   1.380       .  A
C1225      C1226   1.401       .  A
C1225      O1231   1.316       .  A
C1226      C1227   1.400       .  A
C1226      H1237   1.083       .  S
C1227      C1236   1.359       .  A
C1227      C1228   1.380       .  A
C1228      C1229   1.406       .  A
C1228      O1234   1.321       .  A
C1229      C1230   1.405       .  A
C1229      H1238   1.083       .  S
C1230      C1233   1.364       .  A
O1231      C1232   1.329       .  A
C1232      C1233   1.392       .  A
C1233      H1239   1.080       .  S
O1234      C1235   1.333       .  A
C1235      C1236   1.390       .  A
C1236      H1240   1.083       .  S
C1241      C1246   1.381       .  A
C1241      C1242   1.399       .  A
C1241      O1247   1.313       .  A
C1242      C1243   1.397       .  A
C1242      H1253   1.082       .  S
C1243      C1252   1.356       .  A
C1243      C1244   1.380       .  A
C1244      C1245   1.407       .  A
C1244      O1250   1.321       .  A
C1245      C1246   1.406       .  A
C1245      H1254   1.082       .  S
C1246      C1249   1.367       .  A
O1247      C1248   1.328       .  A
C1248      C1249   1.392       .  A
C1249      H1255   1.082       .  S
O1250      C1251   1.332       .  A
C1251      C1252   1.389       .  A
C1252      H1256   1.083       .  S
C1257      C1262   1.381       .  A
C1257      C1258   1.402       .  A
C1257      O1263   1.317       .  A
C1258      C1259   1.401       .  A
C1258      H1269   1.083       .  S
C1259      C1268   1.360       .  A
C1259      C1260   1.381       .  A
C1260      C1261   1.405       .  A
C1260      O1266   1.320       .  A
C1261      C1262   1.404       .  A
C1261      H1270   1.083       .  S
C1262      C1265   1.364       .  A
O1263      C1264   1.330       .  A
C1264      C1265   1.392       .  A
C1265      H1271   1.082       .  S
O1266      C1267   1.330       .  A
C1267      C1268   1.388       .  A
C1268      H1272   1.081       .  S
C1273      C1278   1.380       .  A
C1273      C1274   1.401       .  A
C1273      O1279   1.317       .  A
C1274      C1275   1.400       .  A
C1274      H1285   1.082       .  S
C1275      C1284   1.358       .  A
C1275      C1276   1.380       .  A
C1276      C1277   1.408       .  A
C1276      O1282   1.323       .  A
C1277      C1278   1.408       .  A
C1277      H1286   1.082       .  S
C1278      C1281   1.368       .  A
O1279      C1280   1.330       .  A
C1280      C1281   1.394       .  A
C1281      H1287   1.082       .  S
O1282      C1283   1.333       .  A
C1283      C1284   1.390       .  A
C1284      H1288   1.082       .  S
C1289      C1294   1.380       .  A
C1289      C1290   1.404       .  A
C1289      O1295   1.319       .  A
C1290      C1291   1.403       .  A
C1290      H1301   1.083       .  S
C1291      C1300   1.363       .  A
C1291      C1292   1.379       .  A
C1292      C1293   1.405       .  A
C1292      O1298   1.319       .  A
C1293      C1294   1.404       .  A
C1293      H1302   1.082       .  S
C1294      C1297   1.365       .  A
O1295      C1296   1.331       .  A
C1296      C1297   1.393       .  A
C1297      H1303   1.082       .  S
O1298      C1299   1.332       .  A
C1299      C1300   1.391       .  A
C1300      H1304   1.080       .  S
C1305      C1310   1.382       .  A
C1305      C1306   1.401       .  A
C1305      O1311   1.317       .  A
C1306      C1307   1.401       .  A
C1306      H1317   1.083       .  S
C1307      C1316   1.360       .  A
C1307      C1308   1.381       .  A
C1308      C1309   1.403       .  A
C1308      O1314   1.318       .  A
C1309      C1310   1.403       .  A
C1309      H1318   1.083       .  S
C1310      C1313   1.361       .  A
O1311      C1312   1.328       .  A
C1312      C1313   1.389       .  A
C1313      H1319   1.081       .  S
O1314      C1315   1.331       .  A
C1315      C1316   1.390       .  A
C1316      H1320   1.083       .  S
C1321      C1326   1.379       .  A
C1321      C1322   1.408       .  A
C1321      O1327   1.322       .  A
C1322      C1323   1.407       .  A
C1322      H1333   1.082       .  S
C1323      C1332   1.367       .  A
C1323      C1324   1.381       .  A
C1324      C1325   1.400       .  A
C1324      O1330   1.316       .  A
C1325      C1326   1.399       .  A
C1325      H1334   1.082       .  S
C1326      C1329   1.357       .  A
O1327      C1328   1.332       .  A
C1328      C1329   1.389       .  A
C1329      H1335   1.083       .  S
O1330      C1331   1.329       .  A
C1331      C1332   1.394       .  A
C1332      H1336   1.082       .  S
C1337      C1342   1.381       .  A
C1337      C1338   1.408       .  A
C1337      O1343   1.323       .  A
C1338      C1339   1.407       .  A
C1338      H1349   1.082       .  S
C1339      C1348   1.367       .  A
C1339      C1340   1.381       .  A
C1340      C1341   1.398       .  A
C1340      O1346   1.314       .  A
C1341      C1342   1.397       .  A
C1341      H1350   1.082       .  S
C1342      C1345   1.355       .  A
O1343      C1344   1.332       .  A
C1344      C1345   1.387       .  A
C1345      H1351   1.083       .  S
O1346      C1347   1.328       .  A
C1347      C1348   1.394       .  A
C1348      H1352   1.082       .  S
C1353      C1358   1.381       .  A
C1353      C1354   1.402       .  A
C1353      O1359   1.318       .  A
C1354      C1355   1.401       .  A
C1354      H1365   1.082       .  S
C1355      C1364   1.360       .  A
C1355      C1356   1.382       .  A
C1356      C1357   1.404       .  A
C1356      O1362   1.319       .  A
C1357      C1358   1.403       .  A
C1357      H1366   1.082       .  S
C1358      C1361   1.362       .  A
O1359      C1360   1.330       .  A
C1360      C1361   1.392       .  A
C1361      H1367   1.082       .  S
O1362      C1363   1.330       .  A
C1363      C1364   1.388       .  A
C1364      H1368   1.082       .  S
C1369      C1374   1.381       .  A
C1369      C1370   1.398       .  A
C1369      O1375   1.314       .  A
C1370      C1371   1.397       .  A
C1370      H1381   1.082       .  S
C1371      C1380   1.356       .  A
C1371      C1372   1.380       .  A
C1372      C1373   1.407       .  A
C1372      O1378   1.321       .  A
C1373      C1374   1.407       .  A
C1373      H1382   1.082       .  S
C1374      C1377   1.367       .  A
O1375      C1376   1.328       .  A
C1376      C1377   1.394       .  A
C1377      H1383   1.082       .  S
O1378      C1379   1.332       .  A
C1379      C1380   1.387       .  A
C1380      H1384   1.083       .  S
C1385      C1390   1.381       .  A
C1385      C1386   1.400       .  A
C1385      O1391   1.315       .  A
C1386      C1387   1.399       .  A
C1386      H1397   1.082       .  S
C1387      C1396   1.358       .  A
C1387      C1388   1.380       .  A
C1388      C1389   1.406       .  A
C1388      O1394   1.321       .  A
C1389      C1390   1.405       .  A
C1389      H1398   1.082       .  S
C1390      C1393   1.365       .  A
O1391      C1392   1.328       .  A
C1392      C1393   1.391       .  A
C1393      H1399   1.082       .  S
O1394      C1395   1.332       .  A
C1395      C1396   1.390       .  A
C1396      H1400   1.083       .  S
C1401      C1406   1.382       .  A
C1401      C1402   1.403       .  A
C1401      O1407   1.318       .  A
C1402      C1403   1.402       .  A
C1402      H1413   1.082       .  S
C1403      C1412   1.362       .  A
C1403      C1404   1.381       .  A
C1404      C1405   1.403       .  A
C1404      O1410   1.318       .  A
C1405      C1406   1.402       .  A
C1405      H1414   1.082       .  S
C1406      C1409   1.362       .  A
O1407      C1408   1.329       .  A
C1408      C1409   1.388       .  A
C1409      H1415   1.082       .  S
O1410      C1411   1.331       .  A
C1411      C1412   1.391       .  A
C1412      H1416   1.082       .  S
C1417      C1422   1.380       .  A
C1417      C1418   1.409       .  A
C1417      O1423   1.323       .  A
C1418      C1419   1.409       .  A
C1418      H1429   1.082       .  S
C1419      C1428   1.369       .  A
C1419      C1420   1.381       .  A
C1420      C1421   1.396       .  A
C1420      O1426   1.312       .  A
C1421      C1422   1.395       .  A
C1421      H1430   1.082       .  S
C1422      C1425   1.353       .  A
O1423      C1424   1.334       .  A
C1424      C1425   1.387       .  A
C1425      H1431   1.083       .  S
O1426      C1427   1.326       .  A
C1427      C1428   1.395       .  A
C1428      H1432   1.082       .  S
C1433      C1438   1.381       .  A
C1433      C1434   1.400       .  A
C1433      O1439   1.315       .  A
C1434      C1435   1.399       .  A
C1434      H1445   1.083       .  S
C1435      C1444   1.358       .  A
C1435      C1436   1.381       .  A
C1436      C1437   1.405       .  A
C1436      O1442   1.320       .  A
C1437      C1438   1.404       .  A
C1437      H1446   1.083       .  S
C1438      C1441   1.363       .  A
O1439      C1440   1.327       .  A
C1440      C1441   1.390       .  A
C1441      H1447   1.082       .  S
O1442      C1443   1.332       .  A
C1443      C1444   1.389       .  A
C1444      H1448   1.083       .  S
C1449      C1454   1.381       .  A
C1449      C1450   1.401       .  A
C1449      O1455   1.318       .  A
C1450      C1451   1.401       .  A
C1450      H1461   1.082       .  S
C1451      C1460   1.358       .  A
C1451      C1452   1.382       .  A
C1452      C1453   1.402       .  A
C1452      O1458   1.319       .  A
C1453      C1454   1.402       .  A
C1453      H1462   1.082       .  S
C1454      C1457   1.360       .  A
O1455      C1456   1.330       .  A
C1456      C1457   1.391       .  A
C1457      H1463   1.082       .  S
O1458      C1459   1.329       .  A
C1459      C1460   1.388       .  A
C1460      H1464   1.081       .  S
C1465      C1470   1.380       .  A
C1465      C1466   1.400       .  A
C1465      O1471   1.315       .  A
C1466      C1467   1.399       .  A
C1466      H1477   1.082       .  S
C1467      C1476   1.357       .  A
C1467      C1468   1.380       .  A
C1468      C1469   1.405       .  A
C1468      O1474   1.320       .  A
C1469      C1470   1.404       .  A
C1469      H1478   1.082       .  S
C1470      C1473   1.363       .  A
O1471      C1472   1.329       .  A
C1472      C1473   1.392       .  A
C1473      H1479   1.080       .  S
O1474      C1475   1.331       .  A
C1475      C1476   1.390       .  A
C1476      H1480   1.083       .  S
C1481      C1486   1.380       .  A
C1481      C1482   1.407       .  A
C1481      O1487   1.323       .  A
C1482      C1483   1.407       .  A
C1482      H1493   1.083       .  S
C1483      C1492   1.366       .  A
C1483      C1484   1.380       .  A
C1484      C1485   1.397       .  A
C1484      O1490   1.313       .  A
C1485      C1486   1.397       .  A
C1485      H1494   1.083       .  S
C1486      C1489   1.354       .  A
O1487      C1488   1.333       .  A
C1488      C1489   1.388       .  A
C1489      H1495   1.083       .  S
O1490      C1491   1.328       .  A
C1491      C1492   1.394       .  A
C1492      H1496   1.081       .  S
C1497      C1502   1.381       .  A
C1497      C1498   1.404       .  A
C1497      O1503   1.319       .  A
C1498      C1499   1.403       .  A
C1498      H1509   1.082       .  S
C1499      C1508   1.363       .  A
C1499      C1500   1.381       .  A
C1500      C1501   1.401       .  A
C1500      O1506   1.317       .  A
C1501      C1502   1.400       .  A
C1501      H1510   1.082       .  S
C1502      C1505   1.360       .  A
O1503      C1504   1.329       .  A
C1504      C1505   1.387       .  A
C1505      H1511   1.082       .  S
O1506      C1507   1.330       .  A
C1507      C1508   1.392       .  A
C1508      H1512   1.082       .  S
C1513      C1518   1.381       .  A
C1513      C1514   1.400       .  A
C1513      O1519   1.316       .  A
C1514      C1515   1.399       .  A
C1514      H1525   1.082       .  S
C1515      C1524   1.356       .  A
C1515      C1516   1.380       .  A
C1516      C1517   1.405       .  A
C1516      O1522   1.322       .  A
C1517      C1518   1.405       .  A
C1517      H1526   1.082       .  S
C1518      C1521   1.363       .  A
O1519      C1520   1.328       .  A
C1520      C1521   1.392       .  A
C1521      H1527   1.081       .  S
O1522      C1523   1.332       .  A
C1523      C1524   1.390       .  A
C1524      H1528   1.082       .  S
C1529      C1534   1.380       .  A
C1529      C1530   1.403       .  A
C1529      O1535   1.317       .  A
C1530      C1531   1.402       .  A
C1530      H1541   1.083       .  S
C1531      C1540   1.362       .  A
C1531      C1532   1.380       .  A
C1532      C1533   1.405       .  A
C1532      O1538   1.320       .  A
C1533      C1534   1.404       .  A
C1533      H1542   1.082       .  S
C1534      C1537   1.364       .  A
O1535      C1536   1.331       .  A
C1536      C1537   1.391       .  A
C1537      H1543   1.081       .  S
O1538      C1539   1.331       .  A
C1539      C1540   1.391       .  A
C1540      H1544   1.083       .  S
C1545      C1550   1.382       .  A
C1545      C1546   1.402       .  A
C1545      O1551   1.318       .  A
C1546      C1547   1.402       .  A
C1546      H1557   1.082       .  S
C1547      C1556   1.360       .  A
C1547      C1548   1.381       .  A
C1548      C1549   1.402       .  A
C1548      O1554   1.318       .  A
C1549      C1550   1.402       .  A
C1549      H1558   1.082       .  S
C1550      C1553   1.360       .  A
O1551      C1552   1.328       .  A
C1552      C1553   1.387       .  A
C1553      H1559   1.082       .  S
O1554      C1555   1.330       .  A
C1555      C1556   1.390       .  A
C1556      H1560   1.083       .  S
C1561      C1566   1.380       .  A
C1561      C1562   1.401       .  A
C1561      O1567   1.316       .  A
C1562      C1563   1.400       .  A
C1562      H1573   1.083       .  S
C1563      C1572   1.359       .  A
C1563      C1564   1.381       .  A
C1564      C1565   1.404       .  A
C1564      O1570   1.319       .  A
C1565      C1566   1.403       .  A
C1565      H1574   1.082       .  S
C1566      C1569   1.362       .  A
O1567      C1568   1.329       .  A
C1568      C1569   1.390       .  A
C1569      H1575   1.082       .  S
O1570      C1571   1.331       .  A
C1571      C1572   1.390       .  A
C1572      H1576   1.083       .  S
C1577      C1582   1.380       .  A
C1577      C1578   1.408       .  A
C1577      O1583   1.322       .  A
C1578      C1579   1.407       .  A
C1578      H1589   1.082       .  S
C1579      C1588   1.367       .  A
C1579      C1580   1.381       .  A
C1580      C1581   1.398       .  A
C1580      O1586   1.314       .  A
C1581      C1582   1.397       .  A
C1581      H1590   1.082       .  S
C1582      C1585   1.354       .  A
O1583      C1584   1.333       .  A
C1584      C1585   1.388       .  A
C1585      H1591   1.082       .  S
O1586      C1587   1.328       .  A
C1587      C1588   1.394       .  A
C1588      H1592   1.082       .  S
C1593      C1598   1.381       .  A
C1593      C1594   1.403       .  A
C1593      O1599   1.320       .  A
C1594      C1595   1.403       .  A
C1594      H1605   1.082       .  S
C1595      C1604   1.362       .  A
C1595      C1596   1.381       .  A
C1596      C1597   1.403       .  A
C1596      O1602   1.319       .  A
C1597      C1598   1.403       .  A
C1597      H1606   1.082       .  S
C1598      C1601   1.360       .  A
O1599      C1600   1.330       .  A
C1600      C1601   1.390       .  A
C1601      H1607   1.079       .  S
O1602      C1603   1.331       .  A
C1603      C1604   1.391       .  A
C1604      H1608   1.082       .  S
C1609      C1614   1.381       .  A
C1609      C1610   1.400       .  A
C1609      O1615   1.316       .  A
C1610      C1611   1.399       .  A
C1610      H1621   1.082       .  S
C1611      C1620   1.357       .  A
C1611      C1612   1.381       .  A
C1612      C1613   1.403       .  A
C1612      O1618   1.318       .  A
C1613      C1614   1.402       .  A
C1613      H1622   1.082       .  S
C1614      C1617   1.361       .  A
O1615      C1616   1.329       .  A
C1616      C1617   1.391       .  A
C1617      H1623   1.082       .  S
O1618      C1619   1.329       .  A
C1619      C1620   1.388       .  A
C1620      H1624   1.082       .  S
C1625      C1630   1.380       .  A
C1625      C1626   1.400       .  A
C1625      O1631   1.315       .  A
C1626      C1627   1.399       .  A
C1626      H1637   1.082       .  S
C1627      C1636   1.359       .  A
C1627      C1628   1.381       .  A
C1628      C1629   1.402       .  A
C1628      O1634   1.317       .  A
C1629      C1630   1.402       .  A
C1629      H1638   1.082       .  S
C1630      C1633   1.360       .  A
O1631      C1632   1.327       .  A
C1632      C1633   1.391       .  A
C1633      H1639   1.082       .  S
O1634      C1635   1.331       .  A
C1635      C1636   1.389       .  A
C1636      H1640   1.082       .  S
C1641      C1646   1.380       .  A
C1641      C1642   1.407       .  A
C1641      O1647   1.322       .  A
C1642      C1643   1.406       .  A
C1642      H1653   1.082       .  S
C1643      C1652   1.366       .  A
C1643      C1644   1.381       .  A
C1644      C1645   1.401       .  A
C1644      O1650   1.317       .  A
C1645      C1646   1.400       .  A
C1645      H1654   1.082       .  S
C1646      C1649   1.359       .  A
O1647      C1648   1.333       .  A
C1648      C1649   1.390       .  A
C1649      H1655   1.082       .  S
O1650      C1651   1.328       .  A
C1651      C1652   1.393       .  A
C1652      H1656   1.081       .  S
C1657      C1662   1.380       .  A
C1657      C1658   1.406       .  A
C1657      O1663   1.321       .  A
C1658      C1659   1.406       .  A
C1658      H1669   1.082       .  S
C1659      C1668   1.365       .  A
C1659      C1660   1.380       .  A
C1660      C1661   1.398       .  A
C1660      O1666   1.314       .  A
C1661      C1662   1.397       .  A
C1661      H1670   1.082       .  S
C1662      C1665   1.356       .  A
O1663      C1664   1.332       .  A
C1664      C1665   1.389       .  A
C1665      H1671   1.083       .  S
O1666      C1667   1.328       .  A
C1667      C1668   1.392       .  A
C1668      H1672   1.082       .  S
C1673      C1678   1.381       .  A
C1673      C1674   1.398       .  A
C1673      O1679   1.316       .  A
C1674      C1675   1.398       .  A
C1674      H1685   1.082       .  S
C1675      C1684   1.355       .  A
C1675      C1676   1.380       .  A
C1676      C1677   1.407       .  A
C1676      O1682   1.322       .  A
C1677      C1678   1.407       .  A
C1677      H1686   1.082       .  S
C1678      C1681   1.365       .  A
O1679      C1680   1.328       .  A
C1680      C1681   1.393       .  A
C1681      H1687   1.082       .  S
O1682      C1683   1.332       .  A
C1683      C1684   1.388       .  A
C1684      H1688   1.082       .  S
C1689      C1694   1.381       .  A
C1689      C1690   1.404       .  A
C1689      O1695   1.319       .  A
C1690      C1691   1.403       .  A
C1690      H1701   1.082       .  S
C1691      C1700   1.361       .  A
C1691      C1692   1.381       .  A
C1692      C1693   1.402       .  A
C1692      O1698   1.318       .  A
C1693      C1694   1.401       .  A
C1693      H1702   1.082       .  S
C1694      C1697   1.360       .  A
O1695      C1696   1.330       .  A
C1696      C1697   1.389       .  A
C1697      H1703   1.082       .  S
O1698      C1699   1.330       .  A
C1699      C1700   1.392       .  A
C1700      H1704   1.082       .  S
C1705      C1710   1.380       .  A
C1705      C1706   1.402       .  A
C1705      O1711   1.317       .  A
C1706      C1707   1.401       .  A
C1706      H1717   1.083       .  S
C1707      C1716   1.360       .  A
C1707      C1708   1.380       .  A
C1708      C1709   1.404       .  A
C1708      O1714   1.320       .  A
C1709      C1710   1.404       .  A
C1709      H1718   1.083       .  S
C1710      C1713   1.363       .  A
O1711      C1712   1.330       .  A
C1712      C1713   1.392       .  A
C1713      H1719   1.080       .  S
O1714      C1715   1.331       .  A
C1715      C1716   1.390       .  A
C1716      H1720   1.083       .  S
C1721      C1726   1.380       .  A
C1721      C1722   1.404       .  A
C1721      O1727   1.320       .  A
C1722      C1723   1.404       .  A
C1722      H1733   1.082       .  S
C1723      C1732   1.363       .  A
C1723      C1724   1.380       .  A
C1724      C1725   1.402       .  A
C1724      O1730   1.317       .  A
C1725      C1726   1.401       .  A
C1725      H1734   1.083       .  S
C1726      C1729   1.360       .  A
O1727      C1728   1.331       .  A
C1728      C1729   1.391       .  A
C1729      H1735   1.083       .  S
O1730      C1731   1.330       .  A
C1731      C1732   1.391       .  A
C1732      H1736   1.082       .  S
C1737      C1742   1.382       .  A
C1737      C1738   1.404       .  A
C1737      O1743   1.318       .  A
C1738      C1739   1.403       .  A
C1738      H1749   1.082       .  S
C1739      C1748   1.364       .  A
C1739      C1740   1.381       .  A
C1740      C1741   1.402       .  A
C1740      O1746   1.316       .  A
C1741      C1742   1.400       .  A
C1741      H1750   1.082       .  S
C1742      C1745   1.361       .  A
O1743      C1744   1.329       .  A
C1744      C1745   1.387       .  A
C1745      H1751   1.082       .  S
O1746      C1747   1.330       .  A
C1747      C1748   1.391       .  A
C1748      H1752   1.082       .  S
C1753      C1758   1.380       .  A
C1753      C1754   1.406       .  A
C1753      O1759   1.321       .  A
C1754      C1755   1.405       .  A
C1754      H1765   1.082       .  S
C1755      C1764   1.365       .  A
C1755      C1756   1.381       .  A
C1756      C1757   1.398       .  A
C1756      O1762   1.314       .  A
C1757      C1758   1.397       .  A
C1757      H1766   1.082       .  S
C1758      C1761   1.355       .  A
O1759      C1760   1.332       .  A
C1760      C1761   1.388       .  A
C1761      H1767   1.083       .  S
O1762      C1763   1.328       .  A
C1763      C1764   1.392       .  A
C1764      H1768   1.082       .  S
C1769      C1774   1.379       .  A
C1769      C1770   1.401       .  A
C1769      O1775   1.314       .  A
C1770      C1771   1.400       .  A
C1770      H1781   1.082       .  S
C1771      C1780   1.360       .  A
C1771      C1772   1.380       .  A
C1772      C1773   1.405       .  A
C1772      O1778   1.319       .  A
C1773      C1774   1.404       .  A
C1773      H1782   1.082       .  S
C1774      C1777   1.365       .  A
O1775      C1776   1.330       .  A
C1776      C1777   1.392       .  A
C1777      H1783   1.080       .  S
O1778      C1779   1.331       .  A
C1779      C1780   1.390       .  A
C1780      H1784   1.083       .  S
C1785      C1790   1.380       .  A
C1785      C1786   1.403       .  A
C1785      O1791   1.318       .  A
C1786      C1787   1.402       .  A
C1786      H1797   1.082       .  S
C1787      C1796   1.362       .  A
C1787      C1788   1.381       .  A
C1788      C1789   1.405       .  A
C1788      O1794   1.320       .  A
C1789      C1790   1.404       .  A
C1789      H1798   1.082       .  S
C1790      C1793   1.364       .  A
O1791      C1792   1.331       .  A
C1792      C1793   1.392       .  A
C1793      H1799   1.082       .  S
O1794      C1795   1.330       .  A
C1795      C1796   1.389       .  A
C1796      H1800   1.082       .  S
C1801      C1806   1.380       .  A
C1801      C1802   1.405       .  A
C1801      O1807   1.321       .  A
C1802      C1803   1.405       .  A
C1802      H1813   1.082       .  S
C1803      C1812   1.364       .  A
C1803      C1804   1.380       .  A
C1804      C1805   1.400       .  A
C1804      O1810   1.315       .  A
C1805      C1806   1.399       .  A
C1805      H1814   1.082       .  S
C1806      C1809   1.357       .  A
O1807      C1808   1.332       .  A
C1808      C1809   1.389       .  A
C1809      H1815   1.083       .  S
O1810      C1811   1.329       .  A
C1811      C1812   1.392       .  A
C1812      H1816   1.081       .  S
C1817      C1822   1.381       .  A
C1817      C1818   1.400       .  A
C1817      O1823   1.318       .  A
C1818      C1819   1.400       .  A
C1818      H1829   1.082       .  S
C1819      C1828   1.356       .  A
C1819      C1820   1.381       .  A
C1820      C1821   1.405       .  A
C1820      O1826   1.322       .  A
C1821      C1822   1.405       .  A
C1821      H1830   1.082       .  S
C1822      C1825   1.363       .  A
O1823      C1824   1.329       .  A
C1824      C1825   1.392       .  A
C1825      H1831   1.082       .  S
O1826      C1827   1.331       .  A
C1827      C1828   1.390       .  A
C1828      H1832   1.083       .  S
C1833      C1838   1.382       .  A
C1833      C1834   1.403       .  A
C1833      O1839   1.319       .  A
C1834      C1835   1.403       .  A
C1834      H1845   1.082       .  S
C1835      C1844   1.361       .  A
C1835      C1836   1.380       .  A
C1836      C1837   1.406       .  A
C1836      O1842   1.321       .  A
C1837      C1838   1.405       .  A
C1837      H1846   1.082       .  S
C1838      C1841   1.364       .  A
O1839      C1840   1.329       .  A
C1840      C1841   1.390       .  A
C1841      H1847   1.082       .  S
O1842      C1843   1.332       .  A
C1843      C1844   1.391       .  A
C1844      H1848   1.082       .  S
C1849      C1854   1.381       .  A
C1849      C1850   1.400       .  A
C1849      O1855   1.316       .  A
C1850      C1851   1.399       .  A
C1850      H1861   1.082       .  S
C1851      C1860   1.357       .  A
C1851      C1852   1.381       .  A
C1852      C1853   1.404       .  A
C1852      O1858   1.320       .  A
C1853      C1854   1.403       .  A
C1853      H1862   1.082       .  S
C1854      C1857   1.362       .  A
O1855      C1856   1.328       .  A
C1856      C1857   1.390       .  A
C1857      H1863   1.082       .  S
O1858      C1859   1.331       .  A
C1859      C1860   1.389       .  A
C1860      H1864   1.083       .  S
C1865      C1870   1.381       .  A
C1865      C1866   1.400       .  A
C1865      O1871   1.315       .  A
C1866      C1867   1.399       .  A
C1866      H1877   1.082       .  S
C1867      C1876   1.357       .  A
C1867      C1868   1.380       .  A
C1868      C1869   1.405       .  A
C1868      O1874   1.319       .  A
C1869      C1870   1.404       .  A
C1869      H1878   1.082       .  S
C1870      C1873   1.364       .  A
O1871      C1872   1.329       .  A
C1872      C1873   1.392       .  A
C1873      H1879   1.082       .  S
O1874      C1875   1.330       .  A
C1875      C1876   1.390       .  A
C1876      H1880   1.083       .  S
C1881      C1886   1.381       .  A
C1881      C1882   1.402       .  A
C1881      O1887   1.318       .  A
C1882      C1883   1.402       .  A
C1882      H1893   1.082       .  S
C1883      C1892   1.360       .  A
C1883      C1884   1.380       .  A
C1884      C1885   1.406       .  A
C1884      O1890   1.322       .  A
C1885      C1886   1.405       .  A
C1885      H1894   1.082       .  S
C1886      C1889   1.364       .  A
O1887      C1888   1.329       .  A
C1888      C1889   1.391       .  A
C1889      H1895   1.082       .  S
O1890      C1891   1.332       .  A
C1891      C1892   1.391       .  A
C1892      H1896   1.082       .  S
C1897      C1902   1.380       .  A
C1897      C1898   1.407       .  A
C1897      O1903   1.322       .  A
C1898      C1899   1.406       .  A
C1898      H1909   1.082       .  S
C1899      C1908   1.366       .  A
C1899      C1900   1.380       .  A
C1900      C1901   1.401       .  A
C1900      O1906   1.317       .  A
C1901      C1902   1.400       .  A
C1901      H1910   1.082       .  S
C1902      C1905   1.358       .  A
O1903      C1904   1.332       .  A
C1904      C1905   1.390       .  A
C1905      H1911   1.083       .  S
O1906      C1907   1.330       .  A
C1907      C1908   1.393       .  A
C1908      H1912   1.082       .  S
C1913      C1918   1.380       .  A
C1913      C1914   1.403       .  A
C1913      O1919   1.318       .  A
C1914      C1915   1.402       .  A
C1914      H1925   1.082       .  S
C1915      C1924   1.362       .  A
C1915      C1916   1.380       .  A
C1916      C1917   1.406       .  A
C1916      O1922   1.321       .  A
C1917      C1918   1.405       .  A
C1917      H1926   1.082       .  S
C1918      C1921   1.364       .  A
O1919      C1920   1.330       .  A
C1920      C1921   1.392       .  A
C1921      H1927   1.082       .  S
O1922      C1923   1.332       .  A
C1923      C1924   1.392       .  A
C1924      H1928   1.082       .  S
C1929      C1934   1.381       .  A
C1929      C1930   1.402       .  A
C1929      O1935   1.317       .  A
C1930      C1931   1.401       .  A
C1930      H1941   1.082       .  S
C1931      C1940   1.361       .  A
C1931      C1932   1.380       .  A
C1932      C1933   1.405       .  A
C1932      O1938   1.320       .  A
C1933      C1934   1.404       .  A
C1933      H1942   1.082       .  S
C1934      C1937   1.364       .  A
O1935      C1936   1.328       .  A
C1936      C1937   1.390       .  A
C1937      H1943   1.082       .  S
O1938      C1939   1.332       .  A
C1939      C1940   1.390       .  A
C1940      H1944   1.082       .  S
C1945      C1950   1.380       .  A
C1945      C1946   1.400       .  A
C1945      O1951   1.316       .  A
C1946      C1947   1.399       .  A
C1946      H1957   1.082       .  S
C1947      C1956   1.357       .  A
C1947      C1948   1.380       .  A
C1948      C1949   1.405       .  A
C1948      O1954   1.321       .  A
C1949      C1950   1.404       .  A
C1949      H1958   1.082       .  S
C1950      C1953   1.363       .  A
O1951      C1952   1.329       .  A
C1952      C1953   1.391       .  A
C1953      H1959   1.080       .  S
O1954      C1955   1.331       .  A
C1955      C1956   1.390       .  A
C1956      H1960   1.083       .  S
C1961      C1966   1.381       .  A
C1961      C1962   1.406       .  A
C1961      O1967   1.321       .  A
C1962      C1963   1.406       .  A
C1962      H1973   1.082       .  S
C1963      C1972   1.365       .  A
C1963      C1964   1.381       .  A
C1964      C1965   1.399       .  A
C1964      O1970   1.316       .  A
C1965      C1966   1.399       .  A
C1965      H1974   1.082       .  S
C1966      C1969   1.356       .  A
O1967      C1968   1.331       .  A
C1968      C1969   1.388       .  A
C1969      H1975   1.083       .  S
O1970      C1971   1.329       .  A
C1971      C1972   1.393       .  A
C1972      H1976   1.082       .  S
C1977      C1982   1.381       .  A
C1977      C1978   1.406       .  A
C1977      O1983   1.321       .  A
C1978      C1979   1.406       .  A
C1978      H1989   1.082       .  S
C1979      C1988   1.365       .  A
C1979      C1980   1.380       .  A
C1980      C1981   1.404       .  A
C1980      O1986   1.320       .  A
C1981      C1982   1.403       .  A
C1981      H1990   1.082       .  S
C1982      C1985   1.362       .  A
O1983      C1984   1.331       .  A
C1984      C1985   1.388       .  A
C1985      H1991   1.082       .  S
O1986      C1987   1.331       .  A
C1987      C1988   1.393       .  A
C1988      H1992   1.082       .  S
C1993      C1998   1.380       .  A
C1993      C1994   1.402       .  A
C1993      O1999   1.317       .  A
C1994      C1995   1.401       .  A
C1994      H2005   1.082       .  S
C1995      C2004   1.360       .  A
C1995      C1996   1.380       .  A
C1996      C1997   1.407       .  A
C1996      O2002   1.322       .  A
C1997      C1998   1.406       .  A
C1997      H2006   1.082       .  S
C1998      C2001   1.366       .  A
O1999      C2000   1.330       .  A
C2000      C2001   1.393       .  A
C2001      H2007   1.081       .  S
O2002      C2003   1.333       .  A
C2003      C2004   1.391       .  A
C2004      H2008   1.083       .  S
C2009      C2014   1.380       .  A
C2009      C2010   1.403       .  A
C2009      O2015   1.317       .  A
C2010      C2011   1.401       .  A
C2010      H2021   1.082       .  S
C2011      C2020   1.361       .  A
C2011      C2012   1.380       .  A
C2012      C2013   1.406       .  A
C2012      O2018   1.320       .  A
C2013      C2014   1.405       .  A
C2013      H2022   1.082       .  S
C2014      C2017   1.365       .  A
O2015      C2016   1.331       .  A
C2016      C2017   1.392       .  A
C2017      H2023   1.080       .  S
O2018      C2019   1.332       .  A
C2019      C2020   1.391       .  A
C2020      H2024   1.083       .  S
C2025      C2030   1.380       .  A
C2025      C2026   1.404       .  A
C2025      O2031   1.320       .  A
C2026      C2027   1.404       .  A
C2026      H2037   1.082       .  S
C2027      C2036   1.362       .  A
C2027      C2028   1.382       .  A
C2028      C2029   1.403       .  A
C2028      O2034   1.319       .  A
C2029      C2030   1.403       .  A
C2029      H2038   1.082       .  S
C2030      C2033   1.361       .  A
O2031      C2032   1.331       .  A
C2032      C2033   1.391       .  A
C2033      H2039   1.082       .  S
O2034      C2035   1.329       .  A
C2035      C2036   1.388       .  A
C2036      H2040   1.082       .  S
C2041      C2046   1.380       .  A
C2041      C2042   1.407       .  A
C2041      O2047   1.322       .  A
C2042      C2043   1.407       .  A
C2042      H2053   1.082       .  S
C2043      C2052   1.366       .  A
C2043      C2044   1.380       .  A
C2044      C2045   1.401       .  A
C2044      O2050   1.316       .  A
C2045      C2046   1.400       .  A
C2045      H2054   1.082       .  S
C2046      C2049   1.358       .  A
O2047      C2048   1.333       .  A
C2048      C2049   1.390       .  A
C2049      H2055   1.083       .  S
O2050      C2051   1.329       .  A
C2051      C2052   1.393       .  A
C2052      H2056   1.081       .  S
C2057      C2062   1.380       .  A
C2057      C2058   1.406       .  A
C2057      O2063   1.320       .  A
C2058      C2059   1.405       .  A
C2058      H2069   1.082       .  S
C2059      C2068   1.367       .  A
C2059      C2060   1.380       .  A
C2060      C2061   1.403       .  A
C2060      O2066   1.317       .  A
C2061      C2062   1.401       .  A
C2061      H2070   1.082       .  S
C2062      C2065   1.362       .  A
O2063      C2064   1.332       .  A
C2064      C2065   1.391       .  A
C2065      H2071   1.083       .  S
O2066      C2067   1.331       .  A
C2067      C2068   1.392       .  A
C2068      H2072   1.082       .  S
C2073      C2078   1.381       .  A
C2073      C2074   1.404       .  A
C2073      O2079   1.320       .  A
C2074      C2075   1.403       .  A
C2074      H2085   1.083       .  S
C2075      C2084   1.363       .  A
C2075      C2076   1.382       .  A
C2076      C2077   1.403       .  A
C2076      O2082   1.319       .  A
C2077      C2078   1.403       .  A
C2077      H2086   1.082       .  S
C2078      C2081   1.361       .  A
O2079      C2080   1.331       .  A
C2080      C2081   1.391       .  A
C2081      H2087   1.083       .  S
O2082      C2083   1.329       .  A
C2083      C2084   1.388       .  A
C2084      H2088   1.082       .  S
C2089      C2094   1.380       .  A
C2089      C2090   1.400       .  A
C2089      O2095   1.315       .  A
C2090      C2091   1.399       .  A
C2090      H2101   1.083       .  S
C2091      C2100   1.357       .  A
C2091      C2092   1.380       .  A
C2092      C2093   1.405       .  A
C2092      O2098   1.320       .  A
C2093      C2094   1.404       .  A
C2093      H2102   1.082       .  S
C2094      C2097   1.364       .  A
O2095      C2096   1.329       .  A
C2096      C2097   1.392       .  A
C2097      H2103   1.081       .  S
O2098      C2099   1.331       .  A
C2099      C2100   1.390       .  A
C2100      H2104   1.083       .  S
C2105      C2110   1.379       .  A
C2105      C2106   1.401       .  A
C2105      O2111   1.316       .  A
C2106      C2107   1.400       .  A
C2106      H2117   1.082       .  S
C2107      C2116   1.359       .  A
C2107      C2108   1.380       .  A
C2108      C2109   1.405       .  A
C2108      O2114   1.320       .  A
C2109      C2110   1.404       .  A
C2109      H2118   1.082       .  S
C2110      C2113   1.363       .  A
O2111      C2112   1.330       .  A
C2112      C2113   1.393       .  A
C2113      H2119   1.079       .  S
O2114      C2115   1.331       .  A
C2115      C2116   1.390       .  A
C2116      H2120   1.083       .  S
C2121      C2126   1.381       .  A
C2121      C2122   1.405       .  A
C2121      O2127   1.320       .  A
C2122      C2123   1.404       .  A
C2122      H2133   1.082       .  S
C2123      C2132   1.365       .  A
C2123      C2124   1.380       .  A
C2124      C2125   1.402       .  A
C2124      O2130   1.318       .  A
C2125      C2126   1.401       .  A
C2125      H2134   1.082       .  S
C2126      C2129   1.361       .  A
O2127      C2128   1.330       .  A
C2128      C2129   1.387       .  A
C2129      H2135   1.082       .  S
O2130      C2131   1.330       .  A
C2131      C2132   1.392       .  A
C2132      H2136   1.082       .  S
C2137      C2142   1.380       .  A
C2137      C2138   1.403       .  A
C2137      O2143   1.319       .  A
C2138      C2139   1.403       .  A
C2138      H2149   1.082       .  S
C2139      C2148   1.360       .  A
C2139      C2140   1.381       .  A
C2140      C2141   1.401       .  A
C2140      O2146   1.318       .  A
C2141      C2142   1.401       .  A
C2141      H2150   1.082       .  S
C2142      C2145   1.358       .  A
O2143      C2144   1.329       .  A
C2144      C2145   1.390       .  A
C2145      H2151   1.082       .  S
O2146      C2147   1.330       .  A
C2147      C2148   1.391       .  A
C2148      H2152   1.082       .  S
C2153      C2158   1.380       .  A
C2153      C2154   1.407       .  A
C2153      O2159   1.321       .  A
C2154      C2155   1.406       .  A
C2154      H2165   1.082       .  S
C2155      C2164   1.367       .  A
C2155      C2156   1.381       .  A
C2156      C2157   1.399       .  A
C2156      O2162   1.314       .  A
C2157      C2158   1.398       .  A
C2157      H2166   1.082       .  S
C2158      C2161   1.356       .  A
O2159      C2160   1.332       .  A
C2160      C2161   1.388       .  A
C2161      H2167   1.083       .  S
O2162      C2163   1.328       .  A
C2163      C2164   1.393       .  A
C2164      H2168   1.082       .  S
C2169      C2174   1.382       .  A
C2169      C2170   1.402       .  A
C2169      O2175   1.318       .  A
C2170      C2171   1.402       .  A
C2170      H2181   1.082       .  S
C2171      C2180   1.361       .  A
C2171      C2172   1.380       .  A
C2172      C2173   1.405       .  A
C2172      O2178   1.320       .  A
C2173      C2174   1.404       .  A
C2173      H2182   1.082       .  S
C2174      C2177   1.363       .  A
O2175      C2176   1.329       .  A
C2176      C2177   1.390       .  A
C2177      H2183   1.082       .  S
O2178      C2179   1.332       .  A
C2179      C2180   1.391       .  A
C2180      H2184   1.082       .  S
C2185      C2190   1.380       .  A
C2185      C2186   1.405       .  A
C2185      O2191   1.321       .  A
C2186      C2187   1.405       .  A
C2186      H2197   1.082       .  S
C2187      C2196   1.364       .  A
C2187      C2188   1.380       .  A
C2188      C2189   1.402       .  A
C2188      O2194   1.318       .  A
C2189      C2190   1.402       .  A
C2189      H2198   1.083       .  S
C2190      C2193   1.360       .  A
O2191      C2192   1.332       .  A
C2192      C2193   1.391       .  A
C2193      H2199   1.083       .  S
O2194      C2195   1.330       .  A
C2195      C2196   1.391       .  A
C2196      H2200   1.081       .  S
C2201      C2206   1.381       .  A
C2201      C2202   1.402       .  A
C2201      O2207   1.319       .  A
C2202      C2203   1.402       .  A
C2202      H2213   1.082       .  S
C2203      C2212   1.359       .  A
C2203      C2204   1.380       .  A
C2204      C2205   1.406       .  A
C2204      O2210   1.322       .  A
C2205      C2206   1.406       .  A
C2205      H2214   1.082       .  S
C2206      C2209   1.364       .  A
O2207      C2208   1.330       .  A
C2208      C2209   1.392       .  A
C2209      H2215   1.082       .  S
O2210      C2211   1.332       .  A
C2211      C2212   1.391       .  A
C2212      H2216   1.082       .  S
C2217      C2222   1.381       .  A
C2217      C2218   1.402       .  A
C2217      O2223   1.319       .  A
C2218      C2219   1.402       .  A
C2218      H2229   1.082       .  S
C2219      C2228   1.360       .  A
C2219      C2220   1.382       .  A
C2220      C2221   1.404       .  A
C2220      O2226   1.321       .  A
C2221      C2222   1.405       .  A
C2221      H2230   1.083       .  S
C2222      C2225   1.362       .  A
O2223      C2224   1.330       .  A
C2224      C2225   1.393       .  A
C2225      H2231   1.083       .  S
O2226      C2227   1.330       .  A
C2227      C2228   1.387       .  A
C2228      H2232   1.081       .  S
C2233      C2238   1.381       .  A
C2233      C2234   1.399       .  A
C2233      O2239   1.315       .  A
C2234      C2235   1.398       .  A
C2234      H2245   1.082       .  S
C2235      C2244   1.356       .  A
C2235      C2236   1.381       .  A
C2236      C2237   1.405       .  A
C2236      O2242   1.320       .  A
C2237      C2238   1.404       .  A
C2237      H2246   1.082       .  S
C2238      C2241   1.364       .  A
O2239      C2240   1.328       .  A
C2240      C2241   1.392       .  A
C2241      H2247   1.082       .  S
O2242      C2243   1.331       .  A
C2243      C2244   1.388       .  A
C2244      H2248   1.083       .  S
C2249      C2254   1.381       .  A
C2249      C2250   1.400       .  A
C2249      O2255   1.317       .  A
C2250      C2251   1.400       .  A
C2250      H2261   1.082       .  S
C2251      C2260   1.356       .  A
C2251      C2252   1.381       .  A
C2252      C2253   1.402       .  A
C2252      O2258   1.319       .  A
C2253      C2254   1.402       .  A
C2253      H2262   1.082       .  S
C2254      C2257   1.359       .  A
O2255      C2256   1.329       .  A
C2256      C2257   1.391       .  A
C2257      H2263   1.082       .  S
O2258      C2259   1.329       .  A
C2259      C2260   1.391       .  A
C2260      H2264   1.083       .  S
C2265      C2270   1.381       .  A
C2265      C2266   1.403       .  A
C2265      O2271   1.318       .  A
C2266      C2267   1.402       .  A
C2266      H2277   1.082       .  S
C2267      C2276   1.362       .  A
C2267      C2268   1.380       .  A
C2268      C2269   1.405       .  A
C2268      O2274   1.320       .  A
C2269      C2270   1.404       .  A
C2269      H2278   1.082       .  S
C2270      C2273   1.364       .  A
O2271      C2272   1.329       .  A
C2272      C2273   1.390       .  A
C2273      H2279   1.082       .  S
O2274      C2275   1.331       .  A
C2275      C2276   1.392       .  A
C2276      H2280   1.082       .  S
C2281      C2286   1.380       .  A
C2281      C2282   1.401       .  A
C2281      O2287   1.318       .  A
C2282      C2283   1.401       .  A
C2282      H2293   1.082       .  S
C2283      C2292   1.358       .  A
C2283      C2284   1.380       .  A
C2284      C2285   1.407       .  A
C2284      O2290   1.323       .  A
C2285      C2286   1.407       .  A
C2285      H2294   1.082       .  S
C2286      C2289   1.366       .  A
O2287      C2288   1.330       .  A
C2288      C2289   1.393       .  A
C2289      H2295   1.082       .  S
O2290      C2291   1.332       .  A
C2291      C2292   1.389       .  A
C2292      H2296   1.082       .  S
C2297      C2302   1.380       .  A
C2297      C2298   1.406       .  A
C2297      O2303   1.320       .  A
C2298      C2299   1.405       .  A
C2298      H2309   1.082       .  S
C2299      C2308   1.365       .  A
C2299      C2300   1.380       .  A
C2300      C2301   1.401       .  A
C2300      O2306   1.316       .  A
C2301      C2302   1.400       .  A
C2301      H2310   1.082       .  S
C2302      C2305   1.359       .  A
O2303      C2304   1.331       .  A
C2304      C2305   1.389       .  A
C2305      H2311   1.083       .  S
O2306      C2307   1.330       .  A
C2307      C2308   1.392       .  A
C2308      H2312   1.082       .  S
C2313      C2318   1.381       .  A
C2313      C2314   1.403       .  A
C2313      O2319   1.319       .  A
C2314      C2315   1.403       .  A
C2314      H2325   1.082       .  S
C2315      C2324   1.361       .  A
C2315      C2316   1.380       .  A
C2316      C2317   1.405       .  A
C2316      O2322   1.321       .  A
C2317      C2318   1.404       .  A
C2317      H2326   1.082       .  S
C2318      C2321   1.362       .  A
O2319      C2320   1.330       .  A
C2320      C2321   1.391       .  A
C2321      H2327   1.081       .  S
O2322      C2323   1.332       .  A
C2323      C2324   1.391       .  A
C2324      H2328   1.082       .  S
C2329      C2334   1.380       .  A
C2329      C2330   1.404       .  A
C2329      O2335   1.320       .  A
C2330      C2331   1.404       .  A
C2330      H2341   1.082       .  S
C2331      C2340   1.362       .  A
C2331      C2332   1.381       .  A
C2332      C2333   1.400       .  A
C2332      O2338   1.317       .  A
C2333      C2334   1.400       .  A
C2333      H2342   1.082       .  S
C2334      C2337   1.357       .  A
O2335      C2336   1.331       .  A
C2336      C2337   1.390       .  A
C2337      H2343   1.083       .  S
O2338      C2339   1.329       .  A
C2339      C2340   1.391       .  A
C2340      H2344   1.083       .  S
C2345      C2350   1.380       .  A
C2345      C2346   1.399       .  A
C2345      O2351   1.314       .  A
C2346      C2347   1.398       .  A
C2346      H2357   1.082       .  S
C2347      C2356   1.357       .  A
C2347      C2348   1.380       .  A
C2348      C2349   1.408       .  A
C2348      O2354   1.322       .  A
C2349      C2350   1.407       .  A
C2349      H2358   1.082       .  S
C2350      C2353   1.367       .  A
O2351      C2352   1.328       .  A
C2352      C2353   1.394       .  A
C2353      H2359   1.081       .  S
O2354      C2355   1.333       .  A
C2355      C2356   1.389       .  A
C2356      H2360   1.083       .  S
C2361      C2366   1.382       .  A
C2361      C2362   1.400       .  A
C2361      O2367   1.317       .  A
C2362      C2363   1.400       .  A
C2362      H2373   1.082       .  S
C2363      C2372   1.358       .  A
C2363      C2364   1.380       .  A
C2364      C2365   1.406       .  A
C2364      O2370   1.322       .  A
C2365      C2366   1.405       .  A
C2365      H2374   1.082       .  S
C2366      C2369   1.364       .  A
O2367      C2368   1.327       .  A
C2368      C2369   1.391       .  A
C2369      H2375   1.082       .  S
O2370      C2371   1.332       .  A
C2371      C2372   1.390       .  A
C2372      H2376   1.083       .  S
C2377      C2382   1.380       .  A
C2377      C2378   1.400       .  A
C2377      O2383   1.316       .  A
C2378      C2379   1.399       .  A
C2378      H2389   1.083       .  S
C2379      C2388   1.357       .  A
C2379      C2380   1.381       .  A
C2380      C2381   1.404       .  A
C2380      O2386   1.320       .  A
C2381      C2382   1.404       .  A
C2381      H2390   1.083       .  S
C2382      C2385   1.362       .  A
O2383      C2384   1.329       .  A
C2384      C2385   1.392       .  A
C2385      H2391   1.082       .  S
O2386      C2387   1.331       .  A
C2387      C2388   1.390       .  A
C2388      H2392   1.083       .  S
C2393      C2398   1.380       .  A
C2393      C2394   1.405       .  A
C2393      O2399   1.321       .  A
C2394      C2395   1.405       .  A
C2394      H2405   1.082       .  S
C2395      C2404   1.364       .  A
C2395      C2396   1.380       .  A
C2396      C2397   1.400       .  A
C2396      O2402   1.315       .  A
C2397      C2398   1.399       .  A
C2397      H2406   1.082       .  S
C2398      C2401   1.358       .  A
O2399      C2400   1.332       .  A
C2400      C2401   1.390       .  A
C2401      H2407   1.083       .  S
O2402      C2403   1.329       .  A
C2403      C2404   1.392       .  A
C2404      H2408   1.082       .  S
C2409      C2414   1.381       .  A
C2409      C2410   1.404       .  A
C2409      O2415   1.319       .  A
C2410      C2411   1.403       .  A
C2410      H2421   1.082       .  S
C2411      C2420   1.363       .  A
C2411      C2412   1.382       .  A
C2412      C2413   1.403       .  A
C2412      O2418   1.319       .  A
C2413      C2414   1.403       .  A
C2413      H2422   1.082       .  S
C2414      C2417   1.362       .  A
O2415      C2416   1.331       .  A
C2416      C2417   1.390       .  A
C2417      H2423   1.082       .  S
O2418      C2419   1.329       .  A
C2419      C2420   1.388       .  A
C2420      H2424   1.082       .  S
C2425      C2430   1.379       .  A
C2425      C2426   1.402       .  A
C2425      O2431   1.317       .  A
C2426      C2427   1.401       .  A
C2426      H2437   1.083       .  S
C2427      C2436   1.360       .  A
C2427      C2428   1.380       .  A
C2428      C2429   1.406       .  A
C2428      O2434   1.321       .  A
C2429      C2430   1.405       .  A
C2429      H2438   1.082       .  S
C2430      C2433   1.364       .  A
O2431      C2432   1.331       .  A
C2432      C2433   1.393       .  A
C2433      H2439   1.081       .  S
O2434      C2435   1.332       .  A
C2435      C2436   1.391       .  A
C2436      H2440   1.083       .  S
C2441      C2446   1.380       .  A
C2441      C2442   1.403       .  A
C2441      O2447   1.317       .  A
C2442      C2443   1.401       .  A
C2442      H2453   1.082       .  S
C2443      C2452   1.362       .  A
C2443      C2444   1.380       .  A
C2444      C2445   1.405       .  A
C2444      O2450   1.319       .  A
C2445      C2446   1.404       .  A
C2445      H2454   1.082       .  S
C2446      C2449   1.365       .  A
O2447      C2448   1.330       .  A
C2448      C2449   1.392       .  A
C2449      H2455   1.082       .  S
O2450      C2451   1.331       .  A
C2451      C2452   1.390       .  A
C2452      H2456   1.082       .  S
C2457      C2462   1.380       .  A
C2457      C2458   1.406       .  A
C2457      O2463   1.321       .  A
C2458      C2459   1.406       .  A
C2458      H2469   1.082       .  S
C2459      C2468   1.365       .  A
C2459      C2460   1.382       .  A
C2460      C2461   1.401       .  A
C2460      O2466   1.318       .  A
C2461      C2462   1.401       .  A
C2461      H2470   1.082       .  S
C2462      C2465   1.360       .  A
O2463      C2464   1.333       .  A
C2464      C2465   1.389       .  A
C2465      H2471   1.082       .  S
O2466      C2467   1.327       .  A
C2467      C2468   1.390       .  A
C2468      H2472   1.082       .  S
C2473      C2478   1.381       .  A
C2473      C2474   1.398       .  A
C2473      O2479   1.313       .  A
C2474      C2475   1.397       .  A
C2474      H2485   1.082       .  S
C2475      C2484   1.356       .  A
C2475      C2476   1.380       .  A
C2476      C2477   1.405       .  A
C2476      O2482   1.319       .  A
C2477      C2478   1.404       .  A
C2477      H2486   1.082       .  S
C2478      C2481   1.363       .  A
O2479      C2480   1.327       .  A
C2480      C2481   1.391       .  A
C2481      H2487   1.082       .  S
O2482      C2483   1.332       .  A
C2483      C2484   1.388       .  A
C2484      H2488   1.082       .  S
C2489      C2494   1.381       .  A
C2489      C2490   1.399       .  A
C2489      O2495   1.315       .  A
C2490      C2491   1.398       .  A
C2490      H2501   1.082       .  S
C2491      C2500   1.355       .  A
C2491      C2492   1.381       .  A
C2492      C2493   1.403       .  A
C2492      O2498   1.319       .  A
C2493      C2494   1.403       .  A
C2493      H2502   1.082       .  S
C2494      C2497   1.361       .  A
O2495      C2496   1.328       .  A
C2496      C2497   1.391       .  A
C2497      H2503   1.082       .  S
O2498      C2499   1.330       .  A
C2499      C2500   1.388       .  A
C2500      H2504   1.083       .  S
C2505      C2510   1.381       .  A
C2505      C2506   1.404       .  A
C2505      O2511   1.318       .  A
C2506      C2507   1.403       .  A
C2506      H2517   1.082       .  S
C2507      C2516   1.364       .  A
C2507      C2508   1.380       .  A
C2508      C2509   1.404       .  A
C2508      O2514   1.318       .  A
C2509      C2510   1.402       .  A
C2509      H2518   1.082       .  S
C2510      C2513   1.363       .  A
O2511      C2512   1.329       .  A
C2512      C2513   1.389       .  A
C2513      H2519   1.082       .  S
O2514      C2515   1.331       .  A
C2515      C2516   1.392       .  A
C2516      H2520   1.082       .  S
C2521      C2526   1.381       .  A
C2521      C2522   1.401       .  A
C2521      O2527   1.317       .  A
C2522      C2523   1.401       .  A
C2522      H2533   1.082       .  S
C2523      C2532   1.358       .  A
C2523      C2524   1.380       .  A
C2524      C2525   1.406       .  A
C2524      O2530   1.322       .  A
C2525      C2526   1.405       .  A
C2525      H2534   1.082       .  S
C2526      C2529   1.364       .  A
O2527      C2528   1.329       .  A
C2528      C2529   1.392       .  A
C2529      H2535   1.082       .  S
O2530      C2531   1.332       .  A
C2531      C2532   1.391       .  A
C2532      H2536   1.082       .  S
C2537      C2542   1.380       .  A
C2537      C2538   1.405       .  A
C2537      O2543   1.320       .  A
C2538      C2539   1.405       .  A
C2538      H2549   1.082       .  S
C2539      C2548   1.364       .  A
C2539      C2540   1.380       .  A
C2540      C2541   1.404       .  A
C2540      O2546   1.319       .  A
C2541      C2542   1.403       .  A
C2541      H2550   1.082       .  S
C2542      C2545   1.362       .  A
O2543      C2544   1.330       .  A
C2544      C2545   1.390       .  A
C2545      H2551   1.082       .  S
O2546      C2547   1.331       .  A
C2547      C2548   1.393       .  A
C2548      H2552   1.082       .  S
C2553      C2558   1.381       .  A
C2553      C2554   1.403       .  A
C2553      O2559   1.319       .  A
C2554      C2555   1.403       .  A
C2554      H2565   1.082       .  S
C2555      C2564   1.362       .  A
C2555      C2556   1.381       .  A
C2556      C2557   1.402       .  A
C2556      O2562   1.319       .  A
C2557      C2558   1.402       .  A
C2557      H2566   1.082       .  S
C2558      C2561   1.360       .  A
O2559      C2560   1.330       .  A
C2560      C2561   1.390       .  A
C2561      H2567   1.081       .  S
O2562      C2563   1.330       .  A
C2563      C2564   1.392       .  A
C2564      H2568   1.082       .  S
C2569      C2574   1.381       .  A
C2569      C2570   1.400       .  A
C2569      O2575   1.317       .  A
C2570      C2571   1.400       .  A
C2570      H2581   1.082       .  S
C2571      C2580   1.356       .  A
C2571      C2572   1.381       .  A
C2572      C2573   1.403       .  A
C2572      O2578   1.319       .  A
C2573      C2574   1.403       .  A
C2573      H2582   1.082       .  S
C2574      C2577   1.360       .  A
O2575      C2576   1.329       .  A
C2576      C2577   1.391       .  A
C2577      H2583   1.083       .  S
O2578      C2579   1.330       .  A
C2579      C2580   1.389       .  A
C2580      H2584   1.082       .  S
C2585      C2590   1.380       .  A
C2585      C2586   1.400       .  A
C2585      O2591   1.315       .  A
C2586      C2587   1.399       .  A
C2586      H2597   1.082       .  S
C2587      C2596   1.358       .  A
C2587      C2588   1.380       .  A
C2588      C2589   1.405       .  A
C2588      O2594   1.320       .  A
C2589      C2590   1.404       .  A
C2589      H2598   1.082       .  S
C2590      C2593   1.364       .  A
O2591      C2592   1.329       .  A
C2592      C2593   1.392       .  A
C2593      H2599   1.081       .  S
O2594      C2595   1.332       .  A
C2595      C2596   1.390       .  A
C2596      H2600   1.082       .  S
C2601      C2606   1.381       .  A
C2601      C2602   1.403       .  A
C2601      O2607   1.319       .  A
C2602      C2603   1.403       .  A
C2602      H2613   1.082       .  S
C2603      C2612   1.363       .  A
C2603      C2604   1.382       .  A
C2604      C2605   1.403       .  A
C2604      O2610   1.318       .  A
C2605      C2606   1.402       .  A
C2605      H2614   1.082       .  S
C2606      C2609   1.362       .  A
O2607      C2608   1.331       .  A
C2608      C2609   1.391       .  A
C2609      H2615   1.083       .  S
O2610      C2611   1.329       .  A
C2611      C2612   1.389       .  A
C2612      H2616   1.082       .  S
C2617      C2622   1.380       .  A
C2617      C2618   1.400       .  A
C2617      O2623   1.315       .  A
C2618      C2619   1.400       .  A
C2618      H2629   1.083       .  S
C2619      C2628   1.358       .  A
C2619      C2620   1.380       .  A
C2620      C2621   1.406       .  A
C2620      O2626   1.321       .  A
C2621      C2622   1.405       .  A
C2621      H2630   1.082       .  S
C2622      C2625   1.365       .  A
O2623      C2624   1.329       .  A
C2624      C2625   1.391       .  A
C2625      H2631   1.082       .  S
O2626      C2627   1.332       .  A
C2627      C2628   1.390       .  A
C2628      H2632   1.083       .  S
C2633      C2638   1.381       .  A
C2633      C2634   1.404       .  A
C2633      O2639   1.320       .  A
C2634      C2635   1.404       .  A
C2634      H2645   1.082       .  S
C2635      C2644   1.363       .  A
C2635      C2636   1.379       .  A
C2636      C2637   1.400       .  A
C2636      O2642   1.315       .  A
C2637      C2638   1.399       .  A
C2637      H2646   1.082       .  S
C2638      C2641   1.356       .  A
O2639      C2640   1.331       .  A
C2640      C2641   1.389       .  A
C2641      H2647   1.083       .  S
O2642      C2643   1.330       .  A
C2643      C2644   1.393       .  A
C2644      H2648   1.079       .  S
C2649      C2654   1.380       .  A
C2649      C2650   1.404       .  A
C2649      O2655   1.318       .  A
C2650      C2651   1.402       .  A
C2650      H2661   1.082       .  S
C2651      C2660   1.364       .  A
C2651      C2652   1.381       .  A
C2652      C2653   1.406       .  A
C2652      O2658   1.320       .  A
C2653      C2654   1.405       .  A
C2653      H2662   1.082       .  S
C2654      C2657   1.366       .  A
O2655      C2656   1.331       .  A
C2656      C2657   1.393       .  A
C2657      H2663   1.082       .  S
O2658      C2659   1.330       .  A
C2659      C2660   1.389       .  A
C2660      H2664   1.082       .  S
C2665      C2670   1.381       .  A
C2665      C2666   1.401       .  A
C2665      O2671   1.317       .  A
C2666      C2667   1.401       .  A
C2666      H2677   1.082       .  S
C2667      C2676   1.358       .  A
C2667      C2668   1.380       .  A
C2668      C2669   1.404       .  A
C2668      O2674   1.320       .  A
C2669      C2670   1.404       .  A
C2669      H2678   1.082       .  S
C2670      C2673   1.364       .  A
O2671      C2672   1.330       .  A
C2672      C2673   1.391       .  A
C2673      H2679   1.082       .  S
O2674      C2675   1.331       .  A
C2675      C2676   1.390       .  A
C2676      H2680   1.082       .  S
C2681      C2686   1.379       .  A
C2681      C2682   1.401       .  A
C2681      O2687   1.316       .  A
C2682      C2683   1.400       .  A
C2682      H2693   1.082       .  S
C2683      C2692   1.358       .  A
C2683      C2684   1.380       .  A
C2684      C2685   1.404       .  A
C2684      O2690   1.320       .  A
C2685      C2686   1.403       .  A
C2685      H2694   1.083       .  S
C2686      C2689   1.362       .  A
O2687      C2688   1.331       .  A
C2688      C2689   1.392       .  A
C2689      H2695   1.079       .  S
O2690      C2691   1.331       .  A
C2691      C2692   1.390       .  A
C2692      H2696   1.083       .  S
C2697      C2702   1.382       .  A
C2697      C2698   1.404       .  A
C2697      O2703   1.320       .  A
C2698      C2699   1.404       .  A
C2698      H2709   1.082       .  S
C2699      C2708   1.363       .  A
C2699      C2700   1.381       .  A
C2700      C2701   1.403       .  A
C2700      O2706   1.319       .  A
C2701      C2702   1.402       .  A
C2701      H2710   1.082       .  S
C2702      C2705   1.361       .  A
O2703      C2704   1.330       .  A
C2704      C2705   1.387       .  A
C2705      H2711   1.082       .  S
O2706      C2707   1.331       .  A
C2707      C2708   1.392       .  A
C2708      H2712   1.082       .  S
C2713      C2718   1.380       .  A
C2713      C2714   1.407       .  A
C2713      O2719   1.321       .  A
C2714      C2715   1.406       .  A
C2714      H2725   1.082       .  S
C2715      C2724   1.367       .  A
C2715      C2716   1.380       .  A
C2716      C2717   1.400       .  A
C2716      O2722   1.315       .  A
C2717      C2718   1.399       .  A
C2717      H2726   1.082       .  S
C2718      C2721   1.359       .  A
O2719      C2720   1.332       .  A
C2720      C2721   1.388       .  A
C2721      H2727   1.082       .  S
O2722      C2723   1.329       .  A
C2723      C2724   1.393       .  A
C2724      H2728   1.082       .  S
C2729      C2734   1.381       .  A
C2729      C2730   1.399       .  A
C2729      O2735   1.316       .  A
C2730      C2731   1.399       .  A
C2730      H2741   1.082       .  S
C2731      C2740   1.357       .  A
C2731      C2732   1.380       .  A
C2732      C2733   1.408       .  A
C2732      O2738   1.323       .  A
C2733      C2734   1.408       .  A
C2733      H2742   1.082       .  S
C2734      C2737   1.367       .  A
O2735      C2736   1.329       .  A
C2736      C2737   1.395       .  A
C2737      H2743   1.082       .  S
O2738      C2739   1.333       .  A
C2739      C2740   1.389       .  A
C2740      H2744   1.082       .  S
C2745      C2750   1.381       .  A
C2745      C2746   1.402       .  A
C2745      O2751   1.318       .  A
C2746      C2747   1.401       .  A
C2746      H2757   1.082       .  S
C2747      C2756   1.359       .  A
C2747      C2748   1.381       .  A
C2748      C2749   1.404       .  A
C2748      O2754   1.319       .  A
C2749      C2750   1.404       .  A
C2749      H2758   1.082       .  S
C2750      C2753   1.363       .  A
O2751      C2752   1.330       .  A
C2752      C2753   1.392       .  A
C2753      H2759   1.082       .  S
O2754      C2755   1.330       .  A
C2755      C2756   1.389       .  A
C2756      H2760   1.081       .  S
C2761      C2766   1.381       .  A
C2761      C2762   1.407       .  A
C2761      O2767   1.322       .  A
C2762      C2763   1.406       .  A
C2762      H2773   1.082       .  S
C2763      C2772   1.367       .  A
C2763      C2764   1.381       .  A
C2764      C2765   1.399       .  A
C2764      O2770   1.315       .  A
C2765      C2766   1.398       .  A
C2765      H2774   1.082       .  S
C2766      C2769   1.356       .  A
O2767      C2768   1.332       .  A
C2768      C2769   1.388       .  A
C2769      H2775   1.083       .  S
O2770      C2771   1.329       .  A
C2771      C2772   1.393       .  A
C2772      H2776   1.082       .  S
C2777      C2782   1.380       .  A
C2777      C2778   1.406       .  A
C2777      O2783   1.322       .  A
C2778      C2779   1.406       .  A
C2778      H2789   1.082       .  S
C2779      C2788   1.365       .  A
C2779      C2780   1.381       .  A
C2780      C2781   1.401       .  A
C2780      O2786   1.318       .  A
C2781      C2782   1.400       .  A
C2781      H2790   1.082       .  S
C2782      C2785   1.357       .  A
O2783      C2784   1.332       .  A
C2784      C2785   1.390       .  A
C2785      H2791   1.082       .  S
O2786      C2787   1.330       .  A
C2787      C2788   1.393       .  A
C2788      H2792   1.082       .  S
C2793      C2798   1.380       .  A
C2793      C2794   1.402       .  A
C2793      O2799   1.317       .  A
C2794      C2795   1.401       .  A
C2794      H2805   1.082       .  S
C2795      C2804   1.361       .  A
C2795      C2796   1.381       .  A
C2796      C2797   1.406       .  A
C2796      O2802   1.321       .  A
C2797      C2798   1.406       .  A
C2797      H2806   1.082       .  S
C2798      C2801   1.366       .  A
O2799      C2800   1.330       .  A
C2800      C2801   1.394       .  A
C2801      H2807   1.082       .  S
O2802      C2803   1.331       .  A
C2803      C2804   1.387       .  A
C2804      H2808   1.082       .  S
C2809      C2814   1.381       .  A
C2809      C2810   1.402       .  A
C2809      O2815   1.318       .  A
C2810      C2811   1.402       .  A
C2810      H2821   1.082       .  S
C2811      C2820   1.360       .  A
C2811      C2812   1.381       .  A
C2812      C2813   1.402       .  A
C2812      O2818   1.318       .  A
C2813      C2814   1.401       .  A
C2813      H2822   1.082       .  S
C2814      C2817   1.358       .  A
O2815      C2816   1.329       .  A
C2816      C2817   1.390       .  A
C2817      H2823   1.083       .  S
O2818      C2819   1.330       .  A
C2819      C2820   1.391       .  A
C2820      H2824   1.082       .  S
C2825      C2830   1.381       .  A
C2825      C2826   1.399       .  A
C2825      O2831   1.316       .  A
C2826      C2827   1.399       .  A
C2826      H2837   1.082       .  S
C2827      C2836   1.355       .  A
C2827      C2828   1.380       .  A
C2828      C2829   1.406       .  A
C2828      O2834   1.322       .  A
C2829      C2830   1.406       .  A
C2829      H2838   1.082       .  S
C2830      C2833   1.365       .  A
O2831      C2832   1.329       .  A
C2832      C2833   1.392       .  A
C2833      H2839   1.082       .  S
O2834      C2835   1.331       .  A
C2835      C2836   1.389       .  A
C2836      H2840   1.083       .  S
C2841      C2846   1.382       .  A
C2841      C2842   1.402       .  A
C2841      O2847   1.319       .  A
C2842      C2843   1.402       .  A
C2842      H2853   1.082       .  S
C2843      C2852   1.359       .  A
C2843      C2844   1.380       .  A
C2844      C2845   1.407       .  A
C2844      O2850   1.324       .  A
C2845      C2846   1.407       .  A
C2845      H2854   1.082       .  S
C2846      C2849   1.365       .  A
O2847      C2848   1.329       .  A
C2848      C2849   1.392       .  A
C2849      H2855   1.082       .  S
O2850      C2851   1.334       .  A
C2851      C2852   1.391       .  A
C2852      H2856   1.082       .  S
C2857      C2862   1.381       .  A
C2857      C2858   1.398       .  A
C2857      O2863   1.314       .  A
C2858      C2859   1.397       .  A
C2858      H2869   1.082       .  S
C2859      C2868   1.354       .  A
C2859      C2860   1.380       .  A
C2860      C2861   1.407       .  A
C2860      O2866   1.322       .  A
C2861      C2862   1.407       .  A
C2861      H2870   1.082       .  S
C2862      C2865   1.367       .  A
O2863      C2864   1.328       .  A
C2864      C2865   1.393       .  A
C2865      H2871   1.082       .  S
O2866      C2867   1.332       .  A
C2867      C2868   1.388       .  A
C2868      H2872   1.083       .  S
C2873      C2878   1.381       .  A
C2873      C2874   1.402       .  A
C2873      O2879   1.317       .  A
C2874      C2875   1.401       .  A
C2874      H2885   1.082       .  S
C2875      C2884   1.359       .  A
C2875      C2876   1.381       .  A
C2876      C2877   1.404       .  A
C2876      O2882   1.320       .  A
C2877      C2878   1.403       .  A
C2877      H2886   1.082       .  S
C2878      C2881   1.362       .  A
O2879      C2880   1.329       .  A
C2880      C2881   1.389       .  A
C2881      H2887   1.082       .  S
O2882      C2883   1.331       .  A
C2883      C2884   1.391       .  A
C2884      H2888   1.082       .  S
C2889      C2894   1.381       .  A
C2889      C2890   1.408       .  A
C2889      O2895   1.324       .  A
C2890      C2891   1.408       .  A
C2890      H2901   1.082       .  S
C2891      C2900   1.368       .  A
C2891      C2892   1.380       .  A
C2892      C2893   1.400       .  A
C2892      O2898   1.317       .  A
C2893      C2894   1.400       .  A
C2893      H2902   1.083       .  S
C2894      C2897   1.357       .  A
O2895      C2896   1.332       .  A
C2896      C2897   1.388       .  A
C2897      H2903   1.081       .  S
O2898      C2899   1.330       .  A
C2899      C2900   1.394       .  A
C2900      H2904   1.082       .  S
C2905      C2910   1.380       .  A
C2905      C2906   1.405       .  A
C2905      O2911   1.321       .  A
C2906      C2907   1.405       .  A
C2906      H2917   1.082       .  S
C2907      C2916   1.364       .  A
C2907      C2908   1.381       .  A
C2908      C2909   1.399       .  A
C2908      O2914   1.316       .  A
C2909      C2910   1.399       .  A
C2909      H2918   1.083       .  S
C2910      C2913   1.355       .  A
O2911      C2912   1.331       .  A
C2912      C2913   1.390       .  A
C2913      H2919   1.083       .  S
O2914      C2915   1.329       .  A
C2915      C2916   1.392       .  A
C2916      H2920   1.082       .  S
C2921      C2926   1.381       .  A
C2921      C2922   1.404       .  A
C2921      O2927   1.320       .  A
C2922      C2923   1.404       .  A
C2922      H2933   1.082       .  S
C2923      C2932   1.363       .  A
C2923      C2924   1.381       .  A
C2924      C2925   1.400       .  A
C2924      O2930   1.316       .  A
C2925      C2926   1.399       .  A
C2925      H2934   1.082       .  S
C2926      C2929   1.356       .  A
O2927      C2928   1.330       .  A
C2928      C2929   1.389       .  A
C2929      H2935   1.083       .  S
O2930      C2931   1.329       .  A
C2931      C2932   1.392       .  A
C2932      H2936   1.082       .  S
C2937      C2942   1.381       .  A
C2937      C2938   1.405       .  A
C2937      O2943   1.321       .  A
C2938      C2939   1.405       .  A
C2938      H2949   1.082       .  S
C2939      C2948   1.364       .  A
C2939      C2940   1.380       .  A
C2940      C2941   1.405       .  A
C2940      O2946   1.321       .  A
C2941      C2942   1.404       .  A
C2941      H2950   1.082       .  S
C2942      C2945   1.363       .  A
O2943      C2944   1.331       .  A
C2944      C2945   1.390       .  A
C2945      H2951   1.082       .  S
O2946      C2947   1.332       .  A
C2947      C2948   1.393       .  A
C2948      H2952   1.082       .  S
C2953      C2958   1.381       .  A
C2953      C2954   1.399       .  A
C2953      O2959   1.315       .  A
C2954      C2955   1.398       .  A
C2954      H2965   1.083       .  S
C2955      C2964   1.356       .  A
C2955      C2956   1.381       .  A
C2956      C2957   1.406       .  A
C2956      O2962   1.321       .  A
C2957      C2958   1.405       .  A
C2957      H2966   1.083       .  S
C2958      C2961   1.364       .  A
O2959      C2960   1.328       .  A
C2960      C2961   1.392       .  A
C2961      H2967   1.082       .  S
O2962      C2963   1.332       .  A
C2963      C2964   1.388       .  A
C2964      H2968   1.083       .  S
C2969      C2974   1.380       .  A
C2969      C2970   1.406       .  A
C2969      O2975   1.321       .  A
C2970      C2971   1.405       .  A
C2970      H2981   1.083       .  S
C2971      C2980   1.365       .  A
C2971      C2972   1.380       .  A
C2972      C2973   1.402       .  A
C2972      O2978   1.316       .  A
C2973      C2974   1.401       .  A
C2973      H2982   1.083       .  S
C2974      C2977   1.360       .  A
O2975      C2976   1.332       .  A
C2976      C2977   1.391       .  A
C2977      H2983   1.083       .  S
O2978      C2979   1.330       .  A
C2979      C2980   1.393       .  A
C2980      H2984   1.081       .  S
C2985      C2990   1.381       .  A
C2985      C2986   1.404       .  A
C2985      O2991   1.320       .  A
C2986      C2987   1.404       .  A
C2986      H2997   1.082       .  S
C2987      C2996   1.363       .  A
C2987      C2988   1.382       .  A
C2988      C2989   1.401       .  A
C2988      O2994   1.317       .  A
C2989      C2990   1.400       .  A
C2989      H2998   1.082       .  S
C2990      C2993   1.359       .  A
O2991      C2992   1.331       .  A
C2992      C2993   1.389       .  A
C2993      H2999   1.083       .  S
O2994      C2995   1.327       .  A
C2995      C2996   1.389       .  A
C2996      H3000   1.082       .  S
C3001      C3006   1.381       .  A
C3001      C3002   1.401       .  A
C3001      O3007   1.315       .  A
C3002      C3003   1.399       .  A
C3002      H3013   1.082       .  S
C3003      C3012   1.359       .  A
C3003      C3004   1.380       .  A
C3004      C3005   1.406       .  A
C3004      O3010   1.320       .  A
C3005      C3006   1.405       .  A
C3005      H3014   1.082       .  S
C3006      C3009   1.366       .  A
O3007      C3008   1.329       .  A
C3008      C3009   1.392       .  A
C3009      H3015   1.082       .  S
O3010      C3011   1.332       .  A
C3011      C3012   1.389       .  A
C3012      H3016   1.083       .  S
C3017      C3022   1.380       .  A
C3017      C3018   1.405       .  A
C3017      O3023   1.319       .  A
C3018      C3019   1.403       .  A
C3018      H3029   1.083       .  S
C3019      C3028   1.364       .  A
C3019      C3020   1.379       .  A
C3020      C3021   1.403       .  A
C3020      O3026   1.317       .  A
C3021      C3022   1.402       .  A
C3021      H3030   1.083       .  S
C3022      C3025   1.363       .  A
O3023      C3024   1.331       .  A
C3024      C3025   1.391       .  A
C3025      H3031   1.083       .  S
O3026      C3027   1.331       .  A
C3027      C3028   1.392       .  A
C3028      H3032   1.081       .  S
C3033      C3038   1.380       .  A
C3033      C3034   1.405       .  A
C3033      O3039   1.321       .  A
C3034      C3035   1.404       .  A
C3034      H3045   1.082       .  S
C3035      C3044   1.363       .  A
C3035      C3036   1.382       .  A
C3036      C3037   1.404       .  A
C3036      O3042   1.320       .  A
C3037      C3038   1.403       .  A
C3037      H3046   1.082       .  S
C3038      C3041   1.362       .  A
O3039      C3040   1.332       .  A
C3040      C3041   1.391       .  A
C3041      H3047   1.082       .  S
O3042      C3043   1.329       .  A
C3043      C3044   1.389       .  A
C3044      H3048   1.082       .  S
C3049      C3054   1.380       .  A
C3049      C3050   1.407       .  A
C3049      O3055   1.321       .  A
C3050      C3051   1.406       .  A
C3050      H3061   1.082       .  S
C3051      C3060   1.366       .  A
C3051      C3052   1.381       .  A
C3052      C3053   1.400       .  A
C3052      O3058   1.316       .  A
C3053      C3054   1.399       .  A
C3053      H3062   1.082       .  S
C3054      C3057   1.357       .  A
O3055      C3056   1.332       .  A
C3056      C3057   1.388       .  A
C3057      H3063   1.082       .  S
O3058      C3059   1.329       .  A
C3059      C3060   1.394       .  A
C3060      H3064   1.082       .  S
C3065      C3070   1.381       .  A
C3065      C3066   1.399       .  A
C3065      O3071   1.316       .  A
C3066      C3067   1.399       .  A
C3066      H3077   1.082       .  S
C3067      C3076   1.357       .  A
C3067      C3068   1.381       .  A
C3068      C3069   1.406       .  A
C3068      O3074   1.321       .  A
C3069      C3070   1.406       .  A
C3069      H3078   1.082       .  S
C3070      C3073   1.365       .  A
O3071      C3072   1.328       .  A
C3072      C3073   1.393       .  A
C3073      H3079   1.082       .  S
O3074      C3075   1.332       .  A
C3075      C3076   1.388       .  A
C3076      H3080   1.083       .  S
C3081      C3086   1.382       .  A
C3081      C3082   1.402       .  A
C3081      O3087   1.319       .  A
C3082      C3083   1.402       .  A
C3082      H3093   1.082       .  S
C3083      C3092   1.360       .  A
C3083      C3084   1.380       .  A
C3084      C3085   1.405       .  A
C3084      O3090   1.321       .  A
C3085      C3086   1.404       .  A
C3085      H3094   1.082       .  S
C3086      C3089   1.362       .  A
O3087      C3088   1.329       .  A
C3088      C3089   1.390       .  A
C3089      H3095   1.082       .  S
O3090      C3091   1.332       .  A
C3091      C3092   1.391       .  A
C3092      H3096   1.082       .  S
C3097      C3102   1.380       .  A
C3097      C3098   1.404       .  A
C3097      O3103   1.319       .  A
C3098      C3099   1.404       .  A
C3098      H3109   1.082       .  S
C3099      C3108   1.364       .  A
C3099      C3100   1.381       .  A
C3100      C3101   1.399       .  A
C3100      O3106   1.314       .  A
C3101      C3102   1.398       .  A
C3101      H3110   1.082       .  S
C3102      C3105   1.357       .  A
O3103      C3104   1.330       .  A
C3104      C3105   1.388       .  A
C3105      H3111   1.082       .  S
O3106      C3107   1.328       .  A
C3107      C3108   1.392       .  A
C3108      H3112   1.082       .  S
C3113      C3118   1.381       .  A
C3113      C3114   1.405       .  A
C3113      O3119   1.322       .  A
C3114      C3115   1.405       .  A
C3114      H3125   1.082       .  S
C3115      C3124   1.362       .  A
C3115      C3116   1.381       .  A
C3116      C3117   1.398       .  A
C3116      O3122   1.316       .  A
C3117      C3118   1.398       .  A
C3117      H3126   1.083       .  S
C3118      C3121   1.355       .  A
O3119      C3120   1.332       .  A
C3120      C3121   1.389       .  A
C3121      H3127   1.083       .  S
O3122      C3123   1.327       .  A
C3123      C3124   1.391       .  A
C3124      H3128   1.082       .  S
C3129      C3134   1.381       .  A
C3129      C3130   1.402       .  A
C3129      O3135   1.318       .  A
C3130      C3131   1.401       .  A
C3130      H3141   1.082       .  S
C3131      C3140   1.360       .  A
C3131      C3132   1.381       .  A
C3132      C3133   1.403       .  A
C3132      O3138   1.318       .  A
C3133      C3134   1.403       .  A
C3133      H3142   1.082       .  S
C3134      C3137   1.362       .  A
O3135      C3136   1.330       .  A
C3136      C3137   1.392       .  A
C3137      H3143   1.082       .  S
O3138      C3139   1.329       .  A
C3139      C3140   1.389       .  A
C3140      H3144   1.082       .  S
