geometry optimzed in LAMMPS
_audit_creation_date              2020-11-30 
_audit_creation_method            'lammps2cif' 
_symmetry_space_group_name_H-M    'P1' 
_symmetry_Int_Tables_number       1 
_symmetry_cell_setting            triclinic 
loop_ 
_symmetry_equiv_pos_as_xyz 
  x,y,z 
_cell_length_a                    42.84969149 
_cell_length_b                    42.87373058596542 
_cell_length_c                    42.21951833562804 
_cell_angle_alpha                 87.74939537323074 
_cell_angle_beta                  88.2802552823361 
_cell_angle_gamma                 91.70856746545623 
loop_ 
_atom_site_label 
_atom_site_type_symbol 
_atom_site_fract_x 
_atom_site_fract_y 
_atom_site_fract_z 
_atom_site_charge 
C1          C  0.25760151  0.15965889  0.04744072     0.42400
N2          N  0.24654614  0.19558086  0.01281800     0.01300
C3          C  0.35000958  0.29794472  0.43035535    -0.06600
H4          H  0.33699744  0.31236729  0.05740074     0.06800
C5          C  0.22254173  0.33553872  0.04124983    -0.06900
Co6        Co  0.30409323  0.22454848  0.48114726     0.74200
N7          N  0.32092759  0.28113527  0.02167872    -0.26100
Co8        Co  0.29870216  0.30768464  0.98726827     0.74100
C9          C  0.24610634  0.34791320  0.06198614     0.42500
N10         N  0.19106591  0.27054462  0.01411562     0.00900
N11         N  0.26822529  0.32655632  0.02171013     0.01000
N12         N  0.34556072  0.24636743  0.42487562    -0.47000
H13         H  0.31047825  0.16960596  0.03950246     0.06800
N14         N  0.32248335  0.25062281  0.01880944     0.01300
N15         N  0.27544787  0.32934626  0.45134439     0.01000
C16         C  0.26341856  0.35793799  0.41027688     0.42600
N17         N  0.19429272  0.24012165  0.01262887    -0.25600
C18         C  0.29211357  0.17820394  0.42432400    -0.06500
N19         N  0.23407779  0.17331085  0.03207327    -0.46700
N20         N  0.28663726  0.35102576  0.43030914    -0.46900
C21         C  0.26365112  0.16577514  0.40937246     0.42400
N22         N  0.32680309  0.25517255  0.44791368     0.01300
N23         N  0.19891951  0.24134408  0.44509034    -0.25600
N24         N  0.27724365  0.19710729  0.01383159    -0.26100
N25         N  0.19503150  0.27161172  0.44527489     0.00900
H26         H  0.17543151  0.20382989  0.42237570     0.06800
H27         H  0.21338592  0.33690083  0.41267598     0.06800
N28         N  0.32826556  0.28557815  0.45148554    -0.26100
N29         N  0.23791495  0.32294548  0.01741969    -0.25800
N30         N  0.25146441  0.19956675  0.44406497     0.01300
C31         C  0.34537308  0.25954097  0.06250243     0.42700
C32         C  0.17642194  0.22566575  0.03536208    -0.07000
N33         N  0.24565899  0.32240675  0.44738599    -0.25800
H34         H  0.19738766  0.33545688  0.04408398     0.06800
N35         N  0.33651421  0.23700442  0.04285663    -0.47000
H36         H  0.17418899  0.20064476  0.03965586     0.06800
C37         C  0.16130842  0.25423445  0.41210459     0.42500
C38         C  0.28653113  0.17535745  0.03516087    -0.06500
Co39       Co  0.22396778  0.21805646  0.47916812     0.73800
N40         N  0.17155034  0.27802556  0.03770698    -0.46700
C41         C  0.36178063  0.27165866  0.41226993     0.42800
N42         N  0.23999462  0.18051182  0.42337111    -0.46700
Co43       Co  0.21695869  0.29927790  0.98053833     0.73900
C44         C  0.23709128  0.33683627  0.42074758    -0.07000
C45         C  0.33501842  0.28909361  0.04852922    -0.06600
N46         N  0.28212017  0.19937496  0.44516160    -0.26100
N47         N  0.27436075  0.34153771  0.04834141    -0.46900
H48         H  0.35737402  0.32227649  0.42830857     0.06800
C49         C  0.17944728  0.22865589  0.42475425    -0.07000
Cl50       Cl  0.26002433  0.26344164  0.98204873    -0.50000
C51         C  0.16134268  0.25053902  0.05202458     0.42500
H52         H  0.31583526  0.17046969  0.42188662     0.06700
N53         N  0.17166814  0.28019701  0.42685049    -0.46700
C54         C  0.14201120  0.24469124  0.08148306     0.80200
N55         N  0.13973933  0.21442468  0.09235229    -0.78200
C56         C  0.12292854  0.20596526  0.11893688     0.82600
N57         N  0.11070483  0.22872817  0.13598170    -0.78100
C58         C  0.10707202  0.25783564  0.12300865     0.82700
N59         N  0.12316601  0.26623329  0.09513689    -0.79800
C60         C  0.35734637  0.25169473  0.09414620     0.80200
N61         N  0.37925705  0.26976724  0.10873076    -0.78200
C62         C  0.39153489  0.25859191  0.13647769     0.82600
N63         N  0.38235540  0.22975491  0.14804368    -0.78100
C64         C  0.36552677  0.21005799  0.13083034     0.82700
N65         N  0.35178666  0.22172726  0.10478692    -0.79800
C66         C  0.09272527  0.24511528  0.35992557     0.80200
N67         N  0.11968897  0.25759374  0.37168615    -0.78200
C68         C  0.12899953  0.24804401  0.40126314     0.82600
N69         N  0.11156487  0.22569665  0.41813912    -0.78100
C70         C  0.08517088  0.21301923  0.40645022     0.82700
N71         N  0.07622878  0.22246453  0.37725283    -0.79800
C72         C  0.43236822  0.25158399  0.36576172     0.80200
N73         N  0.40716284  0.26894436  0.37402477    -0.78200
C74         C  0.39484504  0.26613462  0.40438084     0.82600
N75         N  0.40766411  0.24608169  0.42533922    -0.78100
C76         C  0.43076199  0.22741817  0.41674539     0.82700
N77         N  0.44273610  0.22971307  0.38672799    -0.79800
N78         N  0.48418363  0.11351720  0.47047964    -0.36700
N79         N  0.03419453  0.09518315  0.03432088    -0.57200
N80         N  0.48465136  0.09450792  0.08771422    -0.36700
N81         N  0.43081262  0.09227213  0.04607409    -0.57200
C82         C  0.00530081  0.09132499  0.47656482     0.26900
C83         C  0.45803376  0.09858115  0.48256574     0.26900
C84         C  0.01218447  0.09445099  0.10257947     0.26900
C85         C  0.46011019  0.09427399  0.10906797     0.26900
C86         C  0.04946879  0.10116006  0.50868884     0.35500
C87         C  0.05231605  0.10376629  0.05809484     0.35500
C88         C  0.41722320  0.10791890  0.52099695     0.35500
C89         C  0.41400295  0.09433256  0.07302364     0.35500
C90         C  0.99461954  0.06283024  0.49026054    -0.22000
C91         C  0.46440894  0.06871297  0.49314756    -0.22000
C92         C  0.00486155  0.09133415  0.13473843    -0.22000
C93         C  0.47139517  0.09623455  0.13936196    -0.22000
C94         C  0.07807004  0.11450035  0.51541305    -0.23000
C95         C  0.08019830  0.11742476  0.04558414    -0.23000
C96         C  0.39034433  0.12108770  0.53216867    -0.23000
C97         C  0.38391609  0.10367888  0.06576232    -0.23000
C98         C  0.03523952  0.10481628  0.47933190    -0.18400
C99         C  0.43102425  0.11413851  0.49087922    -0.18400
C100        C  0.42818095  0.09941252  0.10237876    -0.18400
C101        C  0.04217286  0.10469526  0.09033520    -0.18400
H102        H  0.00728097  0.04578365  0.50317417     0.14500
H103        H  0.44851976  0.05181728  0.50530539     0.14500
H104        H  0.02088533  0.09323480  0.15396443     0.14500
H105        H  0.45770786  0.09814408  0.16114657     0.14500
H106        H  0.09531422  0.12518029  0.49878150     0.12800
H107        H  0.09852688  0.12909891  0.05808579     0.12800
H108        H  0.37383600  0.13435994  0.51865689     0.12800
H109        H  0.36536821  0.10947985  0.08223131     0.12800
H110        H  0.48670878  0.13690041  0.46285641     0.26100
H111        H  0.48330340  0.09602668  0.06318874     0.26100
C112        C  0.08017361  0.16862279  0.21648577     0.42400
N113        N  0.04499213  0.20000049  0.23421754     0.01300
C114        C  0.43976852  0.29506223  0.15602793    -0.06600
H115        H  0.07336723  0.31974477  0.14555805     0.06800
C116        C  0.07556197  0.33235014  0.25102817    -0.06900
Co117      Co  0.50288449  0.22713871  0.18342114     0.74200
N118        N  0.03616144  0.28672008  0.16186958    -0.26100
Co119      Co  0.50423084  0.30911026  0.19009206     0.74100
C120        C  0.08499060  0.35453475  0.22469949     0.42500
N121        N  0.04971120  0.26981187  0.29376979     0.00900
N122        N  0.04171845  0.32970619  0.21479330     0.01000
N123        N  0.44243838  0.24285764  0.15337721    -0.47000
H124        H  0.06021609  0.17355907  0.16639464     0.06800
N125        N  0.03275150  0.25643135  0.15831292     0.01300
N126        N  0.47296429  0.32942378  0.22293376     0.01000
C127        C  0.43740775  0.35427066  0.24864477     0.42600
N128        N  0.04888886  0.23962092  0.28966533    -0.25600
C129        C  0.45046985  0.17582243  0.20381591    -0.06500
N130        N  0.06827191  0.18223725  0.24242020    -0.46700
N131        N  0.44817230  0.34761636  0.21891398    -0.46900
C132        C  0.44106573  0.15958341  0.23413604     0.42400
N133        N  0.46715334  0.25447607  0.16687608     0.01300
N134        N  0.48099232  0.23926341  0.29583669    -0.25600
N135        N  0.04025169  0.20046959  0.20353739    -0.26100
N136        N  0.48174197  0.26984020  0.29845111     0.00900
H137        H  0.45533949  0.20209772  0.32204426     0.06800
H138        H  0.45758166  0.33856320  0.29631632     0.06800
N139        N  0.46670236  0.28519794  0.16875737    -0.26100
N140        N  0.04742464  0.32107109  0.24423518    -0.25800
N141        N  0.47587460  0.19563318  0.24224879     0.01300
C142        C  0.07496987  0.26847228  0.13033415     0.42700
C143        C  0.06943015  0.22615554  0.30867809    -0.07000
N144        N  0.47883280  0.32416550  0.25318222    -0.25800
H145        H  0.08541582  0.33044139  0.27431550     0.06800
N146        N  0.05420597  0.24546247  0.13947820    -0.45200
H147        H  0.07111468  0.20121432  0.31291149     0.06800
C148        C  0.44702624  0.25339845  0.33362031     0.42500
C149        C  0.06052033  0.18050380  0.19054045    -0.06500
Co150      Co  0.51251263  0.21838969  0.26436739     0.73800
N151        N  0.06897924  0.27763827  0.31659294    -0.46700
C152        C  0.42378516  0.26650984  0.14558756     0.42800
N153        N  0.45815445  0.17322615  0.25636712    -0.46700
Co154      Co  0.51469516  0.29701229  0.27135611     0.73900
C155        C  0.45807151  0.33875560  0.27068120    -0.07000
C156        C  0.06295821  0.29644986  0.14570086    -0.06600
N157        N  0.47212356  0.19777155  0.21137237    -0.26100
N158        N  0.06311599  0.35015043  0.20254420    -0.46900
H159        H  0.43222120  0.31890800  0.15472742     0.06800
C160        C  0.45998264  0.22680659  0.31731179    -0.07000
Cl161      Cl  0.50836836  0.26287939  0.22737009    -0.50000
C162        C  0.08311464  0.25125287  0.32678153     0.42500
H163        H  0.44429491  0.17012784  0.18001367     0.06700
N164        N  0.46233545  0.27919621  0.32104320    -0.46700
C165        C  0.23659903  0.36205620  0.09276321     0.80200
N166        N  0.20584129  0.35661787  0.10007826    -0.78200
C167        C  0.18946479  0.37461326  0.11948739     0.82600
N168        N  0.20511662  0.39671714  0.13487234    -0.78100
C169        C  0.23641935  0.40199220  0.13042734     0.82700
N170        N  0.25241351  0.38566042  0.10770142    -0.79800
C171        C  0.25351309  0.12756736  0.06070053     0.80200
N172        N  0.27116498  0.11551333  0.08451808    -0.78200
C173        C  0.26494875  0.08551291  0.09582099     0.82600
N174        N  0.24123469  0.06881774  0.08362724    -0.78100
C175        C  0.22211459  0.08162077  0.06254771     0.82700
N176        N  0.22828851  0.11102228  0.05114871    -0.79800
C177        C  0.25637633  0.13367894  0.39943480     0.80200
N178        N  0.23239683  0.11855095  0.41603322    -0.78200
C179        C  0.21906730  0.09207674  0.40583499     0.82600
N180        N  0.22964355  0.08047071  0.37833966    -0.78100
C181        C  0.25331381  0.09510304  0.36078519     0.82700
N182        N  0.26644986  0.12240316  0.37102821    -0.79800
C183        C  0.24067106  0.43020735  0.36771486     0.80200
N184        N  0.25964628  0.40621321  0.37591432    -0.78200
C185        C  0.25426841  0.39031192  0.40436385     0.82600
N186        N  0.23047028  0.39854775  0.42363279    -0.78100
C187        C  0.21027761  0.41997652  0.41443608     0.82700
N188        N  0.21500393  0.43557034  0.38619349    -0.79800
N189        N  0.10768887  0.04533320  0.01023343    -0.36700
N190        N  0.07441087  0.48442152  0.06853920    -0.57200
N191        N  0.07728545  0.44102080  0.01859366    -0.36700
N192        N  0.07904532  0.48159015  0.45834979    -0.57200
C193        C  0.08808426  0.03641477  0.03491117     0.26900
C194        C  0.09106458  0.03748773  0.48664856     0.26900
C195        C  0.06797467  0.42277435  0.04452355     0.26900
C196        C  0.07229055  0.41845167  0.49081313     0.26900
C197        C  0.08629657  0.00333090  0.08307636     0.35500
C198        C  0.07857510  0.45907845  0.08744350     0.35500
C199        C  0.09649071  0.00296284  0.44422712     0.35500
C200        C  0.08537948  0.45501625  0.44429933     0.35500
C201        C  0.05893756  0.02836573  0.02414731    -0.22000
C202        C  0.06120341  0.02732835  0.49608656    -0.22000
C203        C  0.05990888  0.39315829  0.03485422    -0.22000
C204        C  0.06425472  0.38789682  0.50002844    -0.22000
C205        C  0.09675047  0.99372425  0.11235964    -0.23000
C206        C  0.09315074  0.46801185  0.11483998    -0.23000
C207        C  0.10860881  0.99216019  0.41634017    -0.23000
C208        C  0.10038708  0.46222277  0.41499917    -0.23000
C209        C  0.09846875  0.02968417  0.06555871    -0.18400
C210        C  0.10471797  0.03186301  0.45699706    -0.18400
C211        C  0.08820455  0.42644794  0.46173998    -0.18400
C212        C  0.07716039  0.42848145  0.07601474    -0.18400
H213        H  0.03883161  0.01920552  0.03802469     0.14500
H214        H  0.04343252  0.01853706  0.48075594     0.14500
H215        H  0.05434668  0.37273849  0.05010223     0.14500
H216        H  0.06430677  0.36796620  0.48505914     0.14500
H217        H  0.11038956  0.00739440  0.12830284     0.12800
H218        H  0.10178300  0.45321613  0.13368308     0.12800
H219        H  0.12205482  0.00533120  0.39797634     0.12800
H220        H  0.11216865  0.44663517  0.39952626     0.12800
H221        H  0.13175078  0.04977252  0.01093022     0.26100
H222        H  0.08852769  0.46290336  0.01860314     0.26100
C223        C  0.09157298  0.38591702  0.23604878     0.80200
N224        N  0.11887137  0.40253772  0.22960931    -0.78200
C225        C  0.12770140  0.42530760  0.24973382     0.82600
N226        N  0.11123877  0.42842152  0.27760086    -0.78100
C227        C  0.08417178  0.41167668  0.28348186     0.82700
N228        N  0.07398158  0.39233255  0.26181969    -0.79800
C229        C  0.39015739  0.08660559  0.23408217     0.80200
N230        N  0.40277434  0.11536364  0.22432786    -0.78200
C231        C  0.42675609  0.12807730  0.24096434     0.82600
N232        N  0.43555631  0.11334194  0.26817689    -0.78100
C233        C  0.42315337  0.08513571  0.27762330     0.82700
N234        N  0.40114778  0.07185536  0.26022155    -0.79800
C235        C  0.09130250  0.13630760  0.22214736     0.80200
N236        N  0.07527995  0.12101284  0.24634203    -0.78200
C237        C  0.08733773  0.09714583  0.26282013     0.82600
N238        N  0.11559343  0.08679681  0.25401242    -0.78100
C239        C  0.13195189  0.09988163  0.22854413     0.82700
N240        N  0.12054734  0.12616158  0.21334286    -0.79800
C241        C  0.36928488  0.40905295  0.26200927     0.80200
N242        N  0.39072758  0.39223153  0.24468714    -0.78200
C243        C  0.41074852  0.37297569  0.26127495     0.82600
N244        N  0.40956889  0.37245264  0.29348195    -0.78100
C245        C  0.38930386  0.38898653  0.31013527     0.82700
N246        N  0.36955246  0.40689916  0.29416719    -0.79800
N247        N  0.43147722  0.49506123  0.43019155    -0.36700
N248        N  0.48943788  0.04846814  0.40931645    -0.57200
N249        N  0.02243723  0.49531842  0.39726754    -0.36700
N250        N  0.48135524  0.45084824  0.42308190    -0.57200
C251        C  0.42270370  0.02604508  0.42565320     0.26900
C252        C  0.41401412  0.46819243  0.43003251     0.26900
C253        C  0.04207858  0.02358050  0.38139985     0.26900
C254        C  0.03203946  0.46897727  0.38374806     0.26900
C255        C  0.46422632  0.06602472  0.41366358     0.35500
C256        C  0.00769545  0.06565012  0.39853963     0.35500
C257        C  0.45777981  0.43251444  0.43604081     0.35500
C258        C  0.99826806  0.43027240  0.41484398     0.35500
C259        C  0.39196586  0.01553291  0.42468290    -0.22000
C260        C  0.38427446  0.47460019  0.41977204    -0.22000
C261        C  0.06153318  0.01221704  0.35798834    -0.22000
C262        C  0.05114023  0.47706600  0.35738181    -0.22000
C263        C  0.47178758  0.09686739  0.40482442    -0.23000
C264        C  0.99696348  0.09572503  0.39531850    -0.23000
C265        C  0.46843334  0.40273061  0.44213040    -0.23000
C266        C  0.99056555  0.40059657  0.42714094    -0.23000
C267        C  0.43425038  0.05347366  0.40936749    -0.18400
C268        C  0.42659766  0.43803762  0.42869486    -0.18400
C269        C  0.02337723  0.43774437  0.39351327    -0.18400
C270        C  0.03457090  0.05551684  0.38249630    -0.18400
H271        H  0.37258821  0.02823804  0.41536408     0.14500
H272        H  0.36576748  0.45775933  0.41523821     0.14500
H273        H  0.07466378  0.02470716  0.33903762     0.14500
H274        H  0.06241587  0.46249956  0.34085543     0.14500
H275        H  0.45570663  0.11570270  0.40198447     0.12800
H276        H  0.00932482  0.11603646  0.38458371     0.12800
H277        H  0.45438149  0.38209104  0.44915684     0.12800
H278        H  0.00446694  0.38001148  0.42557032     0.12800
H279        H  0.45511863  0.49728308  0.43475426     0.26100
H280        H  0.00824148  0.49650543  0.41761732     0.26100
C281        C  0.15538490  0.44609792  0.24291773     0.42400
N282        N  0.18826985  0.48377234  0.25011051     0.01300
C283        C  0.29619703  0.05608474  0.14000814    -0.06600
H284        H  0.30163940  0.43281837  0.15253336     0.06800
C285        C  0.33232077  0.45372599  0.27316498    -0.06900
Co286      Co  0.22097452  0.01152432  0.18911912     0.74200
N287        N  0.27270640  0.46857770  0.17240093    -0.26100
Co288      Co  0.30268951  0.00183676  0.19265516     0.74100
C289        C  0.34758208  0.43394425  0.25039097     0.42500
N290        N  0.26451763  0.48228492  0.30323082     0.00900
N291        N  0.32086510  0.46935569  0.22591000     0.01000
N292        N  0.24508470  0.06470050  0.14559024    -0.47000
H293        H  0.16517343  0.44903877  0.18874269     0.06800
N294        N  0.24228300  0.47296348  0.17170982     0.01300
N295        N  0.32834002  0.03669010  0.21566054     0.01000
C296        C  0.35806133  0.07632890  0.22696793     0.42600
N297        N  0.23406034  0.48509347  0.30123572    -0.25600
C298        C  0.17691800  0.07065713  0.19639156    -0.06500
N299        N  0.16778449  0.46422706  0.26498079    -0.46700
N300        N  0.35077301  0.05637454  0.20382120    -0.46900
C301        C  0.16413934  0.08775116  0.22360580     0.42400
N302        N  0.25306592  0.04153739  0.16466965     0.01300
N303        N  0.24137090  0.05157553  0.29194505    -0.25600
N304        N  0.18984852  0.48031972  0.21919988    -0.26100
N305        N  0.27149372  0.04864222  0.29567347     0.00900
H306        H  0.20672697  0.07883341  0.31464869     0.06800
H307        H  0.33861231  0.07443264  0.27830905     0.06800
N308        N  0.28324655  0.03629673  0.16275457    -0.26100
N309        N  0.31698015  0.47473245  0.25638452    -0.25800
N310        N  0.19695850  0.05288258  0.23948762     0.01300
C311        C  0.24814658  0.43068174  0.14584805     0.42700
C312        C  0.21968228  0.46484780  0.32209917    -0.07000
N313        N  0.32196480  0.04116526  0.24588260    -0.25800
H314        H  0.33405426  0.45352243  0.29868689     0.06800
N315        N  0.22731930  0.45110631  0.15651086    -0.47000
H316        H  0.19472610  0.46263655  0.32669934     0.06800
C317        C  0.25801729  0.08457920  0.32792290     0.42500
C318        C  0.16982762  0.45682797  0.21224857    -0.06500
Co319      Co  0.21496651  0.01848392  0.26939626     0.73800
N320        N  0.27204449  0.46086338  0.32511254    -0.46700
C321        C  0.27067678  0.07551572  0.12870127     0.42800
N322        N  0.17790843  0.07456782  0.24904754    -0.46700
Co323      Co  0.29420086  0.51269507  0.27558116     0.73900
C324        C  0.33800793  0.06630404  0.25438153    -0.07000
C325        C  0.27879976  0.44226994  0.15650660    -0.06600
N326        N  0.19714234  0.04980967  0.20859690    -0.26100
N327        N  0.33970699  0.44527445  0.22104021    -0.46900
H328        H  0.32035447  0.05648679  0.13193182     0.06800
C329        C  0.23108694  0.07392565  0.31038729    -0.07000
Cl330      Cl  0.25807038  0.01052181  0.23146831    -0.50000
C331        C  0.24473313  0.44847292  0.33756849     0.42500
H332        H  0.16974096  0.07178021  0.17203415     0.06700
N333        N  0.28215569  0.06706041  0.31797975    -0.46700
C334        C  0.39847408  0.39896235  0.34142201    -0.05500
C335        C  0.38858982  0.38331165  0.37008246    -0.33000
C336        C  0.39791468  0.39491153  0.39932646     0.36300
C337        C  0.41720273  0.42208648  0.39954008    -0.05900
C338        C  0.42713673  0.43694201  0.37064258    -0.32900
C339        C  0.41789794  0.42579390  0.34199247     0.36200
H340        H  0.37350653  0.36260384  0.36978091     0.16600
O341        O  0.38735114  0.38038179  0.42725884    -0.60400
H342        H  0.44171082  0.45805158  0.37041590     0.16600
O343        O  0.42821237  0.44123816  0.31434727    -0.60500
H344        H  0.41478815  0.45959938  0.31206268     0.43600
H345        H  0.40187571  0.36316741  0.43113886     0.43500
C346        C  0.04697509  0.07535517  0.35501797    -0.05500
C347        C  0.02802122  0.07715271  0.32845214    -0.33000
C348        C  0.04097089  0.08383620  0.29820419     0.36300
C349        C  0.07339218  0.08876544  0.29418901    -0.05900
C350        C  0.09211682  0.08959726  0.32092648    -0.32900
C351        C  0.07906968  0.08298082  0.35133341     0.36200
H352        H  0.00343805  0.07070651  0.33087235     0.16600
O353        O  0.02217781  0.08309725  0.27245560    -0.60400
H354        H  0.11697443  0.09481707  0.31817973     0.16600
O355        O  0.09809263  0.08120669  0.37683771    -0.60500
H356        H  0.10882108  0.06112807  0.37522127     0.43600
H357        H  0.00989316  0.10231415  0.27323057     0.43500
C358        C  0.42551017  0.05712279  0.37556748    -0.05500
C359        C  0.44299243  0.04110878  0.35279944    -0.33000
C360        C  0.44209883  0.04948754  0.32057255     0.36300
C361        C  0.42440385  0.07481020  0.31087468    -0.05900
C362        C  0.40547902  0.08956871  0.33305663    -0.32900
C363        C  0.40563877  0.08057357  0.36518731     0.36200
H364        H  0.45916776  0.02357849  0.36025721     0.16600
O365        O  0.46018866  0.03425045  0.29913753    -0.60400
H366        H  0.39071980  0.10835244  0.32539303     0.16600
O367        O  0.38736659  0.09580084  0.38623669    -0.60500
H368        H  0.36798722  0.08266153  0.38920158     0.43600
H369        H  0.44548486  0.02024618  0.28830363     0.43500
C370        C  0.06758746  0.40969259  0.31446439    -0.05500
C371        C  0.03476813  0.40778260  0.31549061    -0.33000
C372        C  0.01823759  0.40929084  0.34439404     0.36300
C373        C  0.03468657  0.41330327  0.37233607    -0.05900
C374        C  0.06660280  0.40731957  0.37192155    -0.32900
C375        C  0.08349284  0.40642815  0.34303387     0.36200
H376        H  0.02194018  0.40755782  0.29375765     0.16600
O377        O  0.98639070  0.41143522  0.34459145    -0.60400
H378        H  0.07867184  0.40777379  0.39370784     0.16600
O379        O  0.11539869  0.40484229  0.34298911    -0.60500
H380        H  0.11978431  0.38270579  0.33915402     0.43600
H381        H  0.98258981  0.43325933  0.33741923     0.43500
C382        C  0.12007344  0.41446974  0.45868167    -0.05500
C383        C  0.12704385  0.39496443  0.43385632    -0.33000
C384        C  0.15654779  0.39720782  0.41881269     0.36300
C385        C  0.17954440  0.41785065  0.42992813    -0.05900
C386        C  0.17436616  0.43267338  0.45825780    -0.32900
C387        C  0.14463013  0.43150703  0.47251653     0.36200
H388        H  0.10895806  0.38030841  0.42429171     0.16600
O389        O  0.16232016  0.38047802  0.39232581    -0.60400
H390        H  0.19281762  0.44668957  0.46822319     0.16600
O391        O  0.13920048  0.44920468  0.49834213    -0.60500
H392        H  0.13312626  0.46992242  0.48987575     0.43600
H393        H  0.16317762  0.35840525  0.40009557     0.43500
C394        C  0.19078494  0.07812459  0.42219100    -0.05500
C395        C  0.19030226  0.04652807  0.43135102    -0.33000
C396        C  0.16299688  0.03167414  0.44405641     0.36300
C397        C  0.13497613  0.04816303  0.44671403    -0.05900
C398        C  0.13598117  0.08040161  0.43932997    -0.32900
C399        C  0.16369388  0.09545927  0.42723451     0.36200
H400        H  0.21122788  0.03318502  0.42851193     0.16600
O401        O  0.16410409  0.00108068  0.45436559    -0.60400
H402        H  0.11502971  0.09369272  0.44201907     0.16600
O403        O  0.16353130  0.12662395  0.41859720    -0.60500
H404        H  0.16834997  0.13766064  0.43815477     0.43600
H405        H  0.16975260  0.98937732  0.43532734     0.43500
C406        C  0.19037393  0.06828151  0.06229744    -0.05500
C407        C  0.18584681  0.03600620  0.05958957    -0.33000
C408        C  0.15602676  0.02219870  0.06391038     0.36300
C409        C  0.13051204  0.04080739  0.07161438    -0.05900
C410        C  0.13554963  0.07240793  0.07653922    -0.32900
C411        C  0.16503668  0.08643549  0.07159850     0.36200
H412        H  0.20539913  0.02161917  0.05371325     0.16600
O413        O  0.15152654  0.99121363  0.05784524    -0.60400
H414        H  0.11619551  0.08626175  0.08308889     0.16600
O415        O  0.16885598  0.11778388  0.07634075    -0.60500
H416        H  0.17682485  0.11910937  0.09806896     0.43600
H417        H  0.15724582  0.97967943  0.07754280     0.43500
C418        C  0.15805861  0.38233386  0.10903652    -0.05500
C419        C  0.13121656  0.38118422  0.12920484    -0.33000
C420        C  0.10296940  0.39374327  0.11851640     0.36300
C421        C  0.10198797  0.40746310  0.08759280    -0.05900
C422        C  0.12851417  0.40663116  0.06764909    -0.32900
C423        C  0.15623442  0.39505422  0.07798798     0.36200
H424        H  0.13242224  0.37166840  0.15326982     0.16600
O425        O  0.07686195  0.39314512  0.13822700    -0.60400
H426        H  0.12853824  0.41727035  0.04421770     0.16600
O427        O  0.18254542  0.39975198  0.05871407    -0.60500
H428        H  0.17858795  0.38801131  0.03938473     0.43600
H429        H  0.08291745  0.40434940  0.15732671     0.43500
C430        C  0.42663934  0.14480361  0.47515462    -0.05500
C431        C  0.44401670  0.17093366  0.48472775    -0.33000
C432        C  0.44738914  0.19768404  0.46479661     0.36300
C433        C  0.43276780  0.19844403  0.43551818    -0.05900
C434        C  0.41347392  0.17317904  0.42727472    -0.32900
C435        C  0.41002849  0.14663547  0.44732918     0.36200
H436        H  0.45661560  0.16965185  0.50659278     0.16600
O437        O  0.46505865  0.22277170  0.47391561    -0.60400
H438        H  0.40033661  0.17449752  0.40573563     0.16600
O439        O  0.39036748  0.12250197  0.43987035    -0.60500
H440        H  0.36952791  0.12795369  0.44847434     0.43600
H441        H  0.48641310  0.21939652  0.46524958     0.43500
C442        C  0.04487878  0.13306785  0.45910701    -0.05500
C443        C  0.05777109  0.12984332  0.42859651    -0.33000
C444        C  0.06950498  0.15606574  0.41055072     0.36300
C445        C  0.06918543  0.18593861  0.42337660    -0.05900
C446        C  0.05566020  0.18930114  0.45360308    -0.32900
C447        C  0.04304040  0.16329911  0.47119224     0.36200
H448        H  0.05959429  0.10684924  0.41921277     0.16600
O449        O  0.08232165  0.15216498  0.38087155    -0.60400
H450        H  0.05519907  0.21212381  0.46372823     0.16600
O451        O  0.03033777  0.16745491  0.50088644    -0.60500
H452        H  0.00742488  0.16705134  0.49827930     0.43600
H453        H  0.10455775  0.14764536  0.38430596     0.43500
C454        C  0.41555753  0.12700302  0.11762151    -0.05500
C455        C  0.42525140  0.15550680  0.10278429    -0.33000
C456        C  0.40780834  0.18175381  0.10623540     0.36300
C457        C  0.38105108  0.18053904  0.12655919    -0.05900
C458        C  0.37252669  0.15275213  0.14373104    -0.32900
C459        C  0.38941080  0.12561002  0.13868427     0.36200
H460        H  0.44478909  0.15663308  0.08576228     0.16600
O461        O  0.41606556  0.20829596  0.08821953    -0.60400
H462        H  0.35245579  0.15187510  0.15998551     0.16600
O463        O  0.37960696  0.09776978  0.15313327    -0.60500
H464        H  0.36393434  0.08897896  0.13892736     0.43600
H465        H  0.43647122  0.21566124  0.09606455     0.43500
C466        C  0.10186392  0.17841316  0.11685822    -0.05500
C467        C  0.07281914  0.18397393  0.10356477    -0.33000
C468        C  0.05098710  0.15993968  0.10024142     0.36300
C469        C  0.05870172  0.12905527  0.10808541    -0.05900
C470        C  0.08686717  0.12331148  0.12339335    -0.32900
C471        C  0.10857758  0.14800969  0.12790708     0.36200
H472        H  0.06728880  0.20716033  0.09477104     0.16600
O473        O  0.02316853  0.16635300  0.08636652    -0.60400
H474        H  0.09277120  0.09959940  0.12993959     0.16600
O475        O  0.13669012  0.14181229  0.14112823    -0.60500
H476        H  0.13829981  0.15544633  0.15947482     0.43600
H477        H  0.02801881  0.16813689  0.06325069     0.43500
C478        C  0.26030247  0.15828015  0.54759390     0.42400
N479        N  0.24876182  0.19391514  0.51330167     0.01300
C480        C  0.34994543  0.29956063  0.93192747    -0.06600
H481        H  0.33955354  0.31071603  0.55653752     0.06800
C482        C  0.22408141  0.33309387  0.54117905    -0.06900
Co483      Co  0.30227618  0.22656516  0.98139118     0.74200
N484        N  0.32307618  0.27928813  0.52113875    -0.26100
Co485      Co  0.29984575  0.30562728  0.48669653     0.74100
C486        C  0.24777146  0.34595101  0.56147926     0.42500
N487        N  0.19240611  0.26789537  0.51504745     0.00900
N488        N  0.26963952  0.32429619  0.52133446     0.01000
N489        N  0.34428789  0.24820197  0.92570504    -0.47000
H490        H  0.31312016  0.16801709  0.53896701     0.06800
N491        N  0.32490946  0.24877521  0.51837664     0.01300
N492        N  0.27529884  0.33144000  0.95156018     0.01000
C493        C  0.26517664  0.35840131  0.90876868     0.42600
N494        N  0.19596521  0.23750911  0.51395360    -0.25600
C495        C  0.29155894  0.18140525  0.92367812    -0.06500
N496        N  0.23652145  0.17174579  0.53269982    -0.46700
N497        N  0.28760992  0.35168610  0.92972458    -0.46900
C498        C  0.26357921  0.16902904  0.90795961     0.42400
N499        N  0.32543447  0.25718539  0.94855035     0.01300
N500        N  0.19868853  0.24457706  0.94372922    -0.25600
N501        N  0.27949044  0.19545132  0.51385159    -0.26100
N502        N  0.19470984  0.27479710  0.94439265     0.00900
H503        H  0.17647042  0.20768774  0.91905409     0.06800
H504        H  0.21496892  0.33768745  0.91010159     0.06800
N505        N  0.32748383  0.28750386  0.95246170    -0.26100
N506        N  0.23929013  0.32039261  0.51738856    -0.25800
N507        N  0.25039413  0.20194058  0.94327386     0.01300
C508        C  0.34868613  0.25799749  0.56176795     0.42700
C509        C  0.17811777  0.22313329  0.53680477    -0.07000
N510        N  0.24555942  0.32482792  0.94708692    -0.25800
H511        H  0.19894498  0.33277322  0.54423495     0.06800
N512        N  0.33956468  0.23537265  0.54225154    -0.47000
H513        H  0.17592414  0.19812864  0.54124905     0.06800
C514        C  0.16231144  0.25818913  0.90963067     0.42500
C515        C  0.28910958  0.17381483  0.53501272    -0.06500
Co516      Co  0.22254396  0.22048538  0.97817763     0.73800
N517        N  0.17251978  0.27545902  0.53828934    -0.46700
C518        C  0.36145495  0.27316399  0.91378949     0.42800
N519        N  0.23947421  0.18326310  0.92190138    -0.46700
Co520      Co  0.21783540  0.29649376  0.48100808     0.73900
C521        C  0.23821841  0.33801928  0.91934059    -0.07000
C522        C  0.33761941  0.28739562  0.54777393    -0.06600
N523        N  0.28098367  0.20188649  0.94487185    -0.26100
N524        N  0.27595823  0.33966852  0.54767281    -0.46900
H525        H  0.35794328  0.32373699  0.93031041     0.06800
C526        C  0.18023045  0.23242639  0.92222000    -0.07000
Cl527      Cl  0.26136788  0.26115075  0.48212395    -0.50000
C528        C  0.16251800  0.24806957  0.55295348     0.42500
H529        H  0.31542697  0.17406753  0.92137204     0.06700
N530        N  0.17198704  0.28377069  0.92537065    -0.46700
C531        C  0.14209655  0.24244577  0.58177165     0.80200
N532        N  0.13912037  0.21219787  0.59265970    -0.78200
C533        C  0.12175518  0.20411142  0.61900738     0.82600
N534        N  0.10966698  0.22715531  0.63575999    -0.78100
C535        C  0.10658604  0.25626717  0.62260262     0.82700
N536        N  0.12326038  0.26433169  0.59495420    -0.79800
C537        C  0.36174743  0.25053841  0.59337420     0.80200
N538        N  0.38115886  0.27056555  0.60901077    -0.78200
C539        C  0.39252609  0.26093760  0.63782927     0.82600
N540        N  0.38406079  0.23205915  0.64985556    -0.78100
C541        C  0.37061957  0.21055998  0.63188202     0.82700
N542        N  0.35853593  0.22026453  0.60408770    -0.79800
C543        C  0.09409317  0.24697730  0.85777808     0.80200
N544        N  0.12076251  0.26029398  0.86926162    -0.78200
C545        C  0.13006137  0.25169685  0.89909542     0.82600
N546        N  0.11294233  0.22949347  0.91649327    -0.78100
C547        C  0.08695496  0.21590439  0.90496029     0.82700
N548        N  0.07799253  0.22442326  0.87554759    -0.79800
C549        C  0.43225223  0.25073275  0.86914861     0.80200
N550        N  0.40782861  0.26927995  0.87703401    -0.78200
C551        C  0.39449270  0.26654695  0.90697161     0.82600
N552        N  0.40568763  0.24552766  0.92804772    -0.78100
C553        C  0.42765623  0.22548902  0.91976826     0.82700
N554        N  0.44057836  0.22762931  0.89000299    -0.79800
N555        N  0.47952267  0.11463654  0.97264319    -0.36700
N556        N  0.03291458  0.09289246  0.53572572    -0.57200
N557        N  0.48773674  0.09691602  0.58599902    -0.36700
N558        N  0.43358904  0.09568582  0.54515198    -0.57200
C559        C  0.00481328  0.09623896  0.97610391     0.26900
C560        C  0.45407911  0.09781520  0.98368606     0.26900
C561        C  0.00834410  0.09491700  0.60269242     0.26900
C562        C  0.46336021  0.09329366  0.60740062     0.26900
C563        C  0.05008176  0.10418463  0.00705913     0.35500
C564        C  0.05023054  0.10235429  0.55972045     0.35500
C565        C  0.41282199  0.10236492  0.02225320     0.35500
C566        C  0.41810215  0.10216911  0.57200622     0.35500
C567        C  0.99408994  0.06723786  0.98842956    -0.22000
C568        C  0.46189958  0.06789366  0.99280765    -0.22000
C569        C  0.99964997  0.09248009  0.63457153    -0.22000
C570        C  0.47483292  0.08869326  0.63752130    -0.22000
C571        C  0.07899574  0.11706932  0.01335526    -0.23000
C572        C  0.07842828  0.11570525  0.54765122    -0.23000
C573        C  0.38367373  0.10981089  0.03356426    -0.23000
C574        C  0.39045105  0.11694325  0.56451570    -0.23000
C575        C  0.03521797  0.10870860  0.97814354    -0.18400
C576        C  0.42607383  0.11127457  0.99252530    -0.18400
C577        C  0.43206742  0.10196069  0.60210025    -0.18400
C578        C  0.03902248  0.10419734  0.59150483    -0.18400
H579        H  0.00707216  0.04865654  0.99834218     0.14500
H580        H  0.44679024  0.04976025  0.00407536     0.14500
H581        H  0.01484399  0.09449584  0.65446700     0.14500
H582        H  0.46132948  0.08698388  0.65964732     0.14500
H583        H  0.09590477  0.12806722  0.99656859     0.12800
H584        H  0.09639916  0.12776010  0.56028003     0.12800
H585        H  0.36519017  0.12043451  0.02039674     0.12800
H586        H  0.37346175  0.12664951  0.58042827     0.12800
H587        H  0.48079101  0.13839114  0.96625704     0.26100
H588        H  0.48645035  0.10409166  0.56224311     0.26100
C589        C  0.07978972  0.16908941  0.71718595     0.42400
N590        N  0.04391803  0.20006334  0.73451406     0.01300
C591        C  0.44073259  0.29806030  0.65822586    -0.06600
H592        H  0.07336905  0.31900587  0.64441047     0.06800
C593        C  0.07483851  0.33344983  0.75028556    -0.06900
Co594      Co  0.50353148  0.22955525  0.68555141     0.74200
N595        N  0.03586221  0.28649739  0.66110414    -0.26100
Co596      Co  0.50552155  0.31115240  0.69280369     0.74100
C597        C  0.08387936  0.35613338  0.72441206     0.42500
N598        N  0.04991134  0.27066970  0.79248770     0.00900
N599        N  0.04130137  0.33046055  0.71375085     0.01000
N600        N  0.44322751  0.24594996  0.65583987    -0.47000
H601        H  0.06022068  0.17377273  0.66694255     0.06800
N602        N  0.03222639  0.25615127  0.65789399     0.01300
N603        N  0.47442919  0.33115618  0.72585800     0.01000
C604        C  0.43827621  0.35507369  0.75147776     0.42600
N605        N  0.04873420  0.24039516  0.78896802    -0.25600
C606        C  0.45049244  0.17933415  0.70540000    -0.06500
N607        N  0.06735513  0.18257828  0.74296299    -0.46700
N608        N  0.44974935  0.34942164  0.72178593    -0.46900
C609        C  0.44064479  0.16308544  0.73549502     0.42400
N610        N  0.46801801  0.25741217  0.66920910     0.01300
N611        N  0.48160942  0.24009534  0.79870728    -0.25600
N612        N  0.03940354  0.20042887  0.70380912    -0.26100
N613        N  0.48214046  0.27060832  0.80172305     0.00900
H614        H  0.45696498  0.20219032  0.82484788     0.06800
H615        H  0.45724388  0.33808190  0.79925151     0.06800
N616        N  0.46769271  0.28810744  0.67105573    -0.26100
N617        N  0.04708812  0.32162462  0.74309600    -0.25800
N618        N  0.47611911  0.19824065  0.74410014     0.01300
C619        C  0.07456570  0.26750079  0.62972003     0.42700
C620        C  0.06969068  0.22712533  0.80759007    -0.07000
N621        N  0.47968054  0.32513430  0.75613510    -0.25800
H622        H  0.08441770  0.33162301  0.77370009     0.06800
N623        N  0.05355121  0.24481414  0.63916310    -0.45200
H624        H  0.07137564  0.20222561  0.81213973     0.06800
C625        C  0.44825788  0.25312873  0.83744684     0.42500
C626        C  0.06007996  0.18064648  0.69108341    -0.06500
Co627      Co  0.51295275  0.22003700  0.76664042     0.73800
N628        N  0.06987794  0.27882555  0.81453463    -0.46700
C629        C  0.42458476  0.26949258  0.64770523     0.42800
N630        N  0.45783320  0.17618727  0.75796705    -0.46700
Co631      Co  0.51533091  0.29793520  0.77442669     0.73900
C632        C  0.45836230  0.33898400  0.77360582    -0.07000
C633        C  0.06276177  0.29579016  0.64481014    -0.06600
N634        N  0.47251354  0.20068804  0.71323191    -0.26100
N635        N  0.06215714  0.35177211  0.70202952    -0.46900
H636        H  0.43325077  0.32193071  0.65693986     0.06800
C637        C  0.46118986  0.22700561  0.82044112    -0.07000
Cl638      Cl  0.50908828  0.26464202  0.72993280    -0.50000
C639        C  0.08405500  0.25251827  0.82479089     0.42500
H640        H  0.44435781  0.17395819  0.68153776     0.06700
N641        N  0.46299034  0.27936088  0.82489526    -0.46700
C642        C  0.23830769  0.36028184  0.59211862     0.80200
N643        N  0.20768839  0.35431931  0.59950289    -0.78200
C644        C  0.19076878  0.37263993  0.61798564     0.82600
N645        N  0.20579113  0.39565175  0.63274502    -0.78100
C646        C  0.23712348  0.40116211  0.62870664     0.82700
N647        N  0.25361228  0.38453124  0.60656306    -0.79800
C648        C  0.25646875  0.12655258  0.56099986     0.80200
N649        N  0.27365779  0.11576092  0.58556302    -0.78200
C650        C  0.26738654  0.08635350  0.59801069     0.82600
N651        N  0.24408570  0.06879095  0.58614494    -0.78100
C652        C  0.22536306  0.08043778  0.56404325     0.82700
N653        N  0.23156232  0.10943398  0.55153735    -0.79800
C654        C  0.25727104  0.13663931  0.89846031     0.80200
N655        N  0.23451710  0.12066984  0.91596238    -0.78200
C656        C  0.22233830  0.09331525  0.90669579     0.82600
N657        N  0.23280098  0.08167498  0.87917874    -0.78100
C658        C  0.25527873  0.09712842  0.86072505     0.82700
N659        N  0.26721221  0.12532855  0.87002100    -0.79800
C660        C  0.24137698  0.43028297  0.86642561     0.80200
N661        N  0.26062719  0.40632252  0.87401965    -0.78200
C662        C  0.25652547  0.39087600  0.90286724     0.82600
N663        N  0.23387897  0.39961400  0.92318284    -0.78100
C664        C  0.21301477  0.42050186  0.91449173     0.82700
N665        N  0.21636936  0.43571081  0.88584667    -0.79800
N666        N  0.10804572  0.04288253  0.51216544    -0.36700
N667        N  0.07471689  0.47845329  0.56733375    -0.57200
N668        N  0.07335427  0.43602407  0.51675279    -0.36700
N669        N  0.08687669  0.48447512  0.95963361    -0.57200
C670        C  0.08985837  0.03347379  0.53775832     0.26900
C671        C  0.09204044  0.04001229  0.98386405     0.26900
C672        C  0.06721418  0.41658592  0.54265734     0.26900
C673        C  0.07632538  0.42284813  0.99307301     0.26900
C674        C  0.09110460  0.99981558  0.58536692     0.35500
C675        C  0.07963635  0.45281844  0.58554870     0.35500
C676        C  0.09909231  0.00482040  0.94232557     0.35500
C677        C  0.09295355  0.45750157  0.94636035     0.35500
C678        C  0.06023972  0.02497279  0.52854756    -0.22000
C679        C  0.06156410  0.03063961  0.99170453    -0.22000
C680        C  0.06068588  0.38674064  0.53260084    -0.22000
C681        C  0.06544674  0.39317533  0.00252104    -0.22000
C682        C  0.10275863  0.99011675  0.61412924    -0.23000
C683        C  0.09566637  0.46135538  0.61228035    -0.23000
C684        C  0.11161320  0.99372184  0.91475513    -0.23000
C685        C  0.10952238  0.46364589  0.91769545    -0.23000
C686        C  0.10198353  0.02661123  0.56765725    -0.18400
C687        C  0.10719005  0.03362338  0.95516868    -0.18400
C688        C  0.09365818  0.42914653  0.96447409    -0.18400
C689        C  0.07751871  0.42231342  0.57381935    -0.18400
H690        H  0.04100110  0.01529635  0.54336385     0.14500
H691        H  0.04439982  0.02235170  0.97543749     0.14500
H692        H  0.05761672  0.36566660  0.54749035     0.14500
H693        H  0.06463112  0.37290168  0.98803909     0.14500
H694        H  0.11701216  0.00375504  0.62956480     0.12800
H695        H  0.10510499  0.44640729  0.63052113     0.12800
H696        H  0.12560576  0.00659700  0.89659888     0.12800
H697        H  0.12031010  0.44710080  0.90252196     0.12800
H698        H  0.13210408  0.04768907  0.51168004     0.26100
H699        H  0.08284673  0.45865668  0.51650411     0.26100
C700        C  0.09083818  0.38730795  0.73631698     0.80200
N701        N  0.11770390  0.40431154  0.72870688    -0.78200
C702        C  0.12743935  0.42684026  0.74872105     0.82600
N703        N  0.11217997  0.42968131  0.77725369    -0.78100
C704        C  0.08558289  0.41267414  0.78436303     0.82700
N705        N  0.07456449  0.39312367  0.76322141    -0.79800
C706        C  0.39190860  0.08907750  0.73405559     0.80200
N707        N  0.40329620  0.11850320  0.72520869    -0.78200
C708        C  0.42766801  0.13106074  0.74132694     0.82600
N709        N  0.43805660  0.11548068  0.76734985    -0.78100
C710        C  0.42684127  0.08662257  0.77596943     0.82700
N711        N  0.40442907  0.07353200  0.75888960    -0.79800
C712        C  0.09173409  0.13700402  0.72302209     0.80200
N713        N  0.07582628  0.12151821  0.74711136    -0.78200
C714        C  0.08801801  0.09778880  0.76364910     0.82600
N715        N  0.11642737  0.08769911  0.75499847    -0.78100
C716        C  0.13282758  0.10095727  0.72963742     0.82700
N717        N  0.12120563  0.12718021  0.71436547    -0.79800
C718        C  0.37064297  0.41031778  0.76339858     0.80200
N719        N  0.39190825  0.39288658  0.74665266    -0.78200
C720        C  0.41254020  0.37489459  0.76380106     0.82600
N721        N  0.41207820  0.37601504  0.79593994    -0.78100
C722        C  0.39166536  0.39291315  0.81199382     0.82700
N723        N  0.37143263  0.40973942  0.79552401    -0.79800
N724        N  0.43244496  0.50122028  0.93104988    -0.36700
N725        N  0.48405247  0.04376427  0.91003126    -0.57200
N726        N  0.02960590  0.49873654  0.90121736    -0.36700
N727        N  0.48057784  0.45475765  0.92319728    -0.57200
C728        C  0.41650053  0.02045430  0.92029903     0.26900
C729        C  0.41412480  0.47488274  0.93164907     0.26900
C730        C  0.04191835  0.02525537  0.88178229     0.26900
C731        C  0.04014019  0.47216002  0.88885189     0.26900
C732        C  0.45853963  0.06081742  0.91454441     0.35500
C733        C  0.00754134  0.06742388  0.89931160     0.35500
C734        C  0.45675975  0.43779969  0.93755657     0.35500
C735        C  0.00556156  0.43335238  0.91922730     0.35500
C736        C  0.38634302  0.00984657  0.91532187    -0.22000
C737        C  0.38445556  0.48210906  0.92177097    -0.22000
C738        C  0.06167441  0.01401177  0.85852338    -0.22000
C739        C  0.06045753  0.47977819  0.86330763    -0.22000
C740        C  0.46650464  0.09218313  0.90914358    -0.23000
C741        C  0.99701036  0.09762468  0.89671987    -0.23000
C742        C  0.46624863  0.40754631  0.94362593    -0.23000
C743        C  0.99748069  0.40337849  0.93045883    -0.23000
C744        C  0.42912118  0.04885454  0.90699740    -0.18400
C745        C  0.42573522  0.44428616  0.93049140    -0.18400
C746        C  0.03069484  0.44097961  0.89801343    -0.18400
C747        C  0.03416338  0.05715203  0.88287074    -0.18400
H748        H  0.36800212  0.02280925  0.90426744     0.14500
H749        H  0.36535926  0.46575756  0.91779894     0.14500
H750        H  0.07462952  0.02645165  0.83944626     0.14500
H751        H  0.07293665  0.46486872  0.84790539     0.14500
H752        H  0.45060239  0.11121511  0.90693170     0.12800
H753        H  0.00914726  0.11789681  0.88564191     0.12800
H754        H  0.45155546  0.38767995  0.95168338     0.12800
H755        H  0.01123198  0.38274613  0.92833349     0.12800
H756        H  0.45622765  0.50261875  0.93516634     0.26100
H757        H  0.01425508  0.50024481  0.92063424     0.26100
C758        C  0.15504952  0.44755413  0.74141267     0.42400
N759        N  0.18867312  0.48462202  0.74847798     0.01300
C760        C  0.29815065  0.05906656  0.64253420    -0.06600
H761        H  0.30211787  0.43164263  0.65136667     0.06800
C762        C  0.33231092  0.45383943  0.77303821    -0.06900
Co763      Co  0.22259635  0.01317986  0.68963609     0.74200
N764        N  0.27327525  0.46738902  0.67137442    -0.26100
Co765      Co  0.30435472  0.00417345  0.69324405     0.74100
C766        C  0.34805206  0.43384386  0.75090983     0.42500
N767        N  0.26479133  0.48275149  0.80200338     0.00900
N768        N  0.32137474  0.46851149  0.72533201     0.01000
N769        N  0.24695412  0.06753851  0.64778835    -0.47000
H770        H  0.16495347  0.44995570  0.68724890     0.06800
N771        N  0.24287880  0.47203186  0.67047326     0.01300
N772        N  0.32993578  0.03888933  0.71654716     0.01000
C773        C  0.35975026  0.07840975  0.72793222     0.42600
N774        N  0.23434422  0.48567070  0.80003930    -0.25600
C775        C  0.17812597  0.07200030  0.69741230    -0.06500
N776        N  0.16780849  0.46555211  0.76338904    -0.46700
N777        N  0.35209521  0.05883077  0.70461838    -0.46900
C778        C  0.16510870  0.08878010  0.72475437     0.42400
N779        N  0.25472509  0.04385925  0.66623685     0.01300
N780        N  0.24281374  0.05239977  0.79275609    -0.25600
N781        N  0.19022675  0.48088550  0.71761086    -0.26100
N782        N  0.27302468  0.04978029  0.79629151     0.00900
H783        H  0.20820571  0.07992333  0.81523049     0.06800
H784        H  0.34142546  0.07551784  0.77970774     0.06800
N785        N  0.28490977  0.03876594  0.66443286    -0.26100
N786        N  0.31712363  0.47439135  0.75563277    -0.25800
N787        N  0.19799507  0.05375263  0.74042697     0.01300
C788        C  0.24868859  0.42984090  0.64434809     0.42700
C789        C  0.21994119  0.46543899  0.82100473    -0.07000
N790        N  0.32394929  0.04293998  0.74690812    -0.25800
H791        H  0.33389772  0.45434678  0.79854441     0.06800
N792        N  0.22789267  0.45034892  0.65498605    -0.47000
H793        H  0.19498689  0.46320287  0.82560053     0.06800
C794        C  0.25962104  0.08618967  0.82800039     0.42500
C795        C  0.16971812  0.45778206  0.71071795    -0.06500
Co796      Co  0.21649254  0.01919606  0.76999103     0.73800
N797        N  0.27227956  0.46121938  0.82378099    -0.46700
C798        C  0.27272591  0.07830192  0.63116987     0.42800
N799        N  0.17879167  0.07527917  0.75013295    -0.46700
Co800      Co  0.29475357  0.51270449  0.77403074     0.73900
C801        C  0.34037641  0.06778847  0.75565324    -0.07000
C802        C  0.27929888  0.44112957  0.65537990    -0.06600
N803        N  0.19833421  0.05103970  0.70949315    -0.26100
N804        N  0.34059108  0.44458787  0.72120738    -0.46900
H805        H  0.32243982  0.05977837  0.63494216     0.06800
C806        C  0.23255134  0.07495389  0.81097819    -0.07000
Cl807      Cl  0.25971722  0.01200911  0.73206214    -0.50000
C808        C  0.24500791  0.44887480  0.83636398     0.42500
H809        H  0.17117155  0.07345566  0.67299002     0.06700
N810        N  0.28377680  0.06867875  0.81812722    -0.46700
C811        C  0.40004267  0.40363170  0.84320787    -0.05500
C812        C  0.39019921  0.38799294  0.87187618    -0.33000
C813        C  0.39824194  0.40044277  0.90113352     0.36300
C814        C  0.41612810  0.42852824  0.90131441    -0.05900
C815        C  0.42627902  0.44323854  0.87239537    -0.32900
C816        C  0.41813184  0.43133427  0.84375416     0.36200
H817        H  0.37615563  0.36658448  0.87156034     0.16600
O818        O  0.38802378  0.38567124  0.92908366    -0.60400
H819        H  0.44057008  0.46449012  0.87213153     0.16600
O820        O  0.42833105  0.44683663  0.81611950    -0.60500
H821        H  0.41268082  0.46298562  0.81205143     0.43600
H822        H  0.40131996  0.36726059  0.93164989     0.43500
C823        C  0.04692103  0.07718934  0.85572379    -0.05500
C824        C  0.02808013  0.07969222  0.82913785    -0.33000
C825        C  0.04130263  0.08587690  0.79893359     0.36300
C826        C  0.07389020  0.08943755  0.79494209    -0.05900
C827        C  0.09257558  0.08968237  0.82172142    -0.32900
C828        C  0.07922143  0.08389314  0.85213799     0.36200
H829        H  0.00329132  0.07416443  0.83150297     0.16600
O830        O  0.02243420  0.08629298  0.77322274    -0.60400
H831        H  0.11758469  0.09396900  0.81903954     0.16600
O832        O  0.09807298  0.08169543  0.87776662    -0.60500
H833        H  0.10862741  0.06153192  0.87607532     0.43600
H834        H  0.01347709  0.10736888  0.77243950     0.43500
C835        C  0.42309448  0.05495158  0.87285577    -0.05500
C836        C  0.44061359  0.03856345  0.85044249    -0.33000
C837        C  0.44265071  0.04875398  0.81858678     0.36300
C838        C  0.42789755  0.07610202  0.80911114    -0.05900
C839        C  0.40924470  0.09154938  0.83095264    -0.32900
C840        C  0.40621641  0.08070618  0.86245905     0.36200
H841        H  0.45408265  0.01880756  0.85806426     0.16600
O842        O  0.46016512  0.03276187  0.79730313    -0.60400
H843        H  0.39638118  0.11176327  0.82331584     0.16600
O844        O  0.38707397  0.09571663  0.88286181    -0.60500
H845        H  0.36583795  0.08676561  0.87970341     0.43600
H846        H  0.44533968  0.01749610  0.78836551     0.43500
C847        C  0.06997097  0.41180371  0.81576939    -0.05500
C848        C  0.03745175  0.41419989  0.81765359    -0.33000
C849        C  0.02217662  0.41711181  0.84697534     0.36300
C850        C  0.03961371  0.41746194  0.87476400    -0.05900
C851        C  0.07077444  0.40844555  0.87325031    -0.32900
C852        C  0.08633978  0.40624658  0.84376048     0.36200
H853        H  0.02424470  0.41656476  0.79623582     0.16600
O854        O  0.99137362  0.42492576  0.84775961    -0.60400
H855        H  0.08397082  0.40793915  0.89447890     0.16600
O856        O  0.11782526  0.40141748  0.84256541    -0.60500
H857        H  0.11968200  0.37847707  0.84159005     0.43600
H858        H  0.99141714  0.44768171  0.84243190     0.43500
C859        C  0.12471174  0.41516921  0.96251350    -0.05500
C860        C  0.13070460  0.39502269  0.93796970    -0.33000
C861        C  0.15974821  0.39682054  0.92188371     0.36300
C862        C  0.18304146  0.41801533  0.93147753    -0.05900
C863        C  0.17917067  0.43289909  0.95994236    -0.32900
C864        C  0.15002862  0.43194198  0.97542108     0.36200
H865        H  0.11199594  0.38071129  0.92900166     0.16600
O866        O  0.16462419  0.37940235  0.89568931    -0.60400
H867        H  0.19808395  0.44700112  0.96896641     0.16600
O868        O  0.14569051  0.45038803  0.00087663    -0.60500
H869        H  0.13914452  0.47082538  0.99216041     0.43600
H870        H  0.16322725  0.35729640  0.90358695     0.43500
C871        C  0.19425313  0.07925157  0.92316966    -0.05500
C872        C  0.19348750  0.04752130  0.93189921    -0.33000
C873        C  0.16583643  0.03269065  0.94385386     0.36300
C874        C  0.13792208  0.04946134  0.94613105    -0.05900
C875        C  0.13931087  0.08175373  0.93936809    -0.32900
C876        C  0.16725976  0.09672638  0.92806907     0.36200
H877        H  0.21434507  0.03406582  0.92910845     0.16600
O878        O  0.16644548  0.00189814  0.95366957    -0.60400
H879        H  0.11839742  0.09518097  0.94174422     0.16600
O880        O  0.16736706  0.12796447  0.91969312    -0.60500
H881        H  0.16921449  0.13883364  0.93989056     0.43600
H882        H  0.17257442  0.99049228  0.93457460     0.43500
C883        C  0.19375941  0.06670472  0.56353130    -0.05500
C884        C  0.18964100  0.03428442  0.56187556    -0.33000
C885        C  0.15989360  0.02023871  0.56596393     0.36300
C886        C  0.13397709  0.03876577  0.57252540    -0.05900
C887        C  0.13849898  0.07074001  0.57608867    -0.32900
C888        C  0.16799580  0.08490378  0.57143564     0.36200
H889        H  0.20949867  0.01991652  0.55712004     0.16600
O890        O  0.15601476  0.98888654  0.56127402    -0.60400
H891        H  0.11885269  0.08473350  0.58171574     0.16600
O892        O  0.17145269  0.11642887  0.57534236    -0.60500
H893        H  0.17847658  0.11843965  0.59735542     0.43600
H894        H  0.16284261  0.97827918  0.58106977     0.43500
C895        C  0.15915408  0.37878260  0.60711688    -0.05500
C896        C  0.13228721  0.37687514  0.62717714    -0.33000
C897        C  0.10358214  0.38785715  0.61610069     0.36300
C898        C  0.10220600  0.40095762  0.58495960    -0.05900
C899        C  0.12865571  0.40030756  0.56484612    -0.32900
C900        C  0.15684598  0.39008700  0.57555786     0.36200
H901        H  0.13381026  0.36813280  0.65148575     0.16600
O902        O  0.07749031  0.38690781  0.63583621    -0.60400
H903        H  0.12831501  0.41046137  0.54111212     0.16600
O904        O  0.18303640  0.39494513  0.55612374    -0.60500
H905        H  0.17884251  0.38376271  0.53649291     0.43600
H906        H  0.08293790  0.39946407  0.65423080     0.43500
C907        C  0.41982764  0.14215027  0.97799581    -0.05500
C908        C  0.43386988  0.16911672  0.98997212    -0.33000
C909        C  0.43777995  0.19639091  0.97071341     0.36300
C910        C  0.42819663  0.19645955  0.93910490    -0.05900
C911        C  0.41198697  0.17021946  0.92828057    -0.32900
C912        C  0.40719338  0.14350198  0.94797737     0.36200
H913        H  0.44361400  0.16828734  0.01337554     0.16600
O914        O  0.45107620  0.22268154  0.98284782    -0.60400
H915        H  0.40226791  0.17081174  0.90486157     0.16600
O916        O  0.39079589  0.11824807  0.93766746    -0.60500
H917        H  0.36899597  0.12082657  0.94545605     0.43600
H918        H  0.47259054  0.22432615  0.97347625     0.43500
C919        C  0.04534191  0.13681948  0.95797414    -0.05500
C920        C  0.05832717  0.13323289  0.92757350    -0.33000
C921        C  0.07088868  0.15910911  0.90960349     0.36300
C922        C  0.07128691  0.18900922  0.92239247    -0.05900
C923        C  0.05813343  0.19270325  0.95270574    -0.32900
C924        C  0.04471473  0.16704010  0.97023384     0.36200
H925        H  0.05961118  0.11017576  0.91822937     0.16600
O926        O  0.08382734  0.15479414  0.88005353    -0.60400
H927        H  0.05838894  0.21552993  0.96285867     0.16600
O928        O  0.03241007  0.17141713  0.00002859    -0.60500
H929        H  0.01021655  0.17625233  0.99691706     0.43600
H930        H  0.10595769  0.14996390  0.88369631     0.43500
C931        C  0.42083968  0.12691498  0.62244177    -0.05500
C932        C  0.43473833  0.15613156  0.61446930    -0.33000
C933        C  0.41793705  0.18301438  0.61728418     0.36300
C934        C  0.38762040  0.18132992  0.63136626    -0.05900
C935        C  0.37517204  0.15255470  0.64370724    -0.32900
C936        C  0.39162137  0.12507147  0.63885949     0.36200
H937        H  0.45685392  0.15776397  0.60119984     0.16600
O938        O  0.42945667  0.21032395  0.60242612    -0.60400
H939        H  0.35215449  0.15116860  0.65507824     0.16600
O940        O  0.37792362  0.09661473  0.64751246    -0.60500
H941        H  0.36965916  0.08838532  0.62772339     0.43600
H942        H  0.45193479  0.21228649  0.60727644     0.43500
C943        C  0.10035337  0.17675142  0.61701431    -0.05500
C944        C  0.07103416  0.18275597  0.60452264    -0.33000
C945        C  0.04855085  0.15914092  0.60208603     0.36300
C946        C  0.05592624  0.12807097  0.60956416    -0.05900
C947        C  0.08468177  0.12179429  0.62356171    -0.32900
C948        C  0.10691961  0.14615593  0.62759902     0.36200
H949        H  0.06571097  0.20599728  0.59575346     0.16600
O950        O  0.02045475  0.16613197  0.58908808    -0.60400
H951        H  0.09070982  0.09788276  0.62904211     0.16600
O952        O  0.13541970  0.13939755  0.63964584    -0.60500
H953        H  0.13778559  0.15257162  0.65824722     0.43600
H954        H  0.02437869  0.16677180  0.56580216     0.43500
C955        C  0.26251404  0.65804087  0.04558734     0.42400
N956        N  0.25058665  0.69403539  0.01139226     0.01300
C957        C  0.35133847  0.79787474  0.43100313    -0.06600
H958        H  0.34004063  0.80960892  0.05772659     0.06800
C959        C  0.22476933  0.83251107  0.04183351    -0.06900
Co960      Co  0.30293751  0.72558999  0.48015039     0.74200
N961        N  0.32415464  0.77941450  0.02099392    -0.26100
Co962      Co  0.30102066  0.80657291  0.98698747     0.74100
C963        C  0.24822691  0.84552452  0.06226875     0.42500
N964        N  0.19360600  0.76791333  0.01420652     0.00900
N965        N  0.27048032  0.82456603  0.02186990     0.01000
N966        N  0.34408593  0.74678523  0.42407773    -0.47000
H967        H  0.31522060  0.66812944  0.03644240     0.06800
N968        N  0.32617287  0.74904353  0.01729005     0.01300
N969        N  0.27509293  0.83021066  0.45094624     0.01000
C970        C  0.26327641  0.85717934  0.40870346     0.42600
N971        N  0.19731869  0.73757569  0.01265697    -0.25600
C972        C  0.28972945  0.67979475  0.42339507    -0.06500
N973        N  0.23861993  0.67168381  0.03081912    -0.46700
N974        N  0.28652095  0.85065145  0.42880321    -0.46900
C975        C  0.26082510  0.66718580  0.40953014     0.42400
N976        N  0.32515000  0.75612115  0.44663119     0.01300
N977        N  0.19788014  0.74283283  0.44656307    -0.25600
N978        N  0.28131241  0.69562980  0.01173163    -0.26100
N979        N  0.19391645  0.77309042  0.44659071     0.00900
H980        H  0.17547039  0.70519800  0.42305849     0.06800
H981        H  0.21291441  0.83686214  0.41226633     0.06800
N982        N  0.32800323  0.78634330  0.45087659    -0.26100
N983        N  0.24016820  0.82042250  0.01780941    -0.25800
N984        N  0.24951866  0.70058258  0.44478219     0.01300
C985        C  0.34932807  0.75681513  0.06127680     0.42700
C986        C  0.17978236  0.72286882  0.03559998    -0.07000
N987        N  0.24512618  0.82359963  0.44758049    -0.25800
H988        H  0.19964909  0.83178943  0.04486439     0.06800
N989        N  0.34056484  0.73490081  0.04088198    -0.47000
H990        H  0.17787886  0.69783120  0.03989180     0.06800
C991        C  0.16106234  0.75542457  0.41257573     0.42500
C992        C  0.29114443  0.67375961  0.03262567    -0.06500
Co993      Co  0.22312367  0.71951555  0.48036391     0.73800
N994        N  0.17403753  0.77510091  0.03786548    -0.46700
C995        C  0.36226364  0.77124084  0.41277238     0.42800
N996        N  0.23745953  0.68149221  0.42447563    -0.46700
Co997      Co  0.21896237  0.79728098  0.98077662     0.73900
C998        C  0.23661966  0.83698370  0.42036316    -0.07000
C999        C  0.33835187  0.78663711  0.04810251    -0.06600
N1000       N  0.28020948  0.70066343  0.44473961    -0.26100
N1001       N  0.27653815  0.83982916  0.04835408    -0.46900
H1002       H  0.36047632  0.82169684  0.43016455     0.06800
C1003       C  0.17902652  0.73003385  0.42575560    -0.07000
Cl1004     Cl  0.26271008  0.76210919  0.98137245    -0.50000
C1005       C  0.16431296  0.74755413  0.05235466     0.42500
H1006       H  0.31345058  0.67232454  0.42004769     0.06700
N1007       N  0.17090929  0.78151733  0.42755886    -0.46700
C1008       C  0.14450515  0.74172341  0.08162404     0.80200
N1009       N  0.14185250  0.71144059  0.09247222    -0.78200
C1010       C  0.12466896  0.70314885  0.11890933     0.82600
N1011       N  0.11257375  0.72607891  0.13589154    -0.78100
C1012       C  0.10938338  0.75528201  0.12299659     0.82700
N1013       N  0.12575772  0.76348503  0.09519348    -0.79800
C1014       C  0.36130178  0.74817461  0.09305363     0.80200
N1015       N  0.38019958  0.76755220  0.10995932    -0.78200
C1016       C  0.39071060  0.75692114  0.13877341     0.82600
N1017       N  0.38201446  0.72767832  0.14958485    -0.78100
C1018       C  0.36860018  0.70694577  0.13071392     0.82700
N1019       N  0.35752584  0.71762611  0.10276737    -0.79800
C1020       C  0.09447645  0.74385593  0.35815110     0.80200
N1021       N  0.12070531  0.75727931  0.37058217    -0.78200
C1022       C  0.12914643  0.74864692  0.40077057     0.82600
N1023       N  0.11156834  0.72629024  0.41754272    -0.78100
C1024       C  0.08599606  0.71264816  0.40511974     0.82700
N1025       N  0.07793570  0.72124342  0.37542120    -0.79800
C1026       C  0.43217951  0.74786554  0.36724761     0.80200
N1027       N  0.40884137  0.76729875  0.37620784    -0.78200
C1028       C  0.39496041  0.76321314  0.40582329     0.82600
N1029       N  0.40463623  0.74004715  0.42546710    -0.78100
C1030       C  0.42552502  0.71942610  0.41591264     0.82700
N1031       N  0.43893535  0.72293830  0.38651728    -0.79800
N1032       N  0.48064594  0.60884075  0.46831726    -0.36700
N1033       N  0.03379545  0.59638455  0.03156521    -0.57200
N1034       N  0.48530910  0.59462353  0.08440606    -0.36700
N1035       N  0.43095130  0.59264780  0.04362101    -0.57200
C1036       C  0.00190537  0.59419356  0.47743185     0.26900
C1037       C  0.45563461  0.59142960  0.47953111     0.26900
C1038       C  0.01127559  0.59477389  0.09937180     0.26900
C1039       C  0.46110036  0.59047058  0.10598548     0.26900
C1040       C  0.04773323  0.60310769  0.50760523     0.35500
C1041       C  0.05116486  0.60634751  0.05534077     0.35500
C1042       C  0.41538739  0.59807015  0.51889876     0.35500
C1043       C  0.41520414  0.59780295  0.07070820     0.35500
C1044       C  0.99070426  0.56629025  0.49207066    -0.22000
C1045       C  0.46456094  0.56240933  0.49039472    -0.22000
C1046       C  0.00377871  0.58979990  0.13133062    -0.22000
C1047       C  0.47294509  0.58732111  0.13613013    -0.22000
C1048       C  0.07690549  0.61597718  0.51298331    -0.23000
C1049       C  0.07825142  0.62166697  0.04293837    -0.23000
C1050       C  0.38747864  0.60850847  0.53065015    -0.23000
C1051       C  0.38682921  0.61140551  0.06352379    -0.23000
C1052       C  0.03241041  0.60670841  0.47880436    -0.18400
C1053       C  0.42729786  0.60451210  0.48798176    -0.18400
C1054       C  0.42932757  0.59785116  0.10078098    -0.18400
C1055       C  0.04133121  0.60544634  0.08771212    -0.18400
H1056       H  0.00338561  0.54858364  0.50411652     0.14500
H1057       H  0.44996545  0.54425872  0.50234539     0.14500
H1058       H  0.01970294  0.59048382  0.15074034     0.14500
H1059       H  0.45960770  0.58567913  0.15836076     0.14500
H1060       H  0.09365105  0.62622624  0.49557700     0.12800
H1061       H  0.09584429  0.63441010  0.05544363     0.12800
H1062       H  0.36908757  0.61919583  0.51739103     0.12800
H1063       H  0.36927092  0.61995077  0.07954417     0.12800
H1064       H  0.48102182  0.63234682  0.46086361     0.26100
H1065       H  0.48361538  0.60087068  0.06047844     0.26100
C1066       C  0.07750785  0.66627062  0.21658401     0.42400
N1067       N  0.04358559  0.69902535  0.23387970     0.01300
C1068       C  0.43875154  0.79452836  0.15914385    -0.06600
H1069       H  0.07653569  0.81834422  0.14489229     0.06800
C1070       C  0.07772345  0.83249606  0.24993692    -0.06900
Co1071     Co  0.50250937  0.72665665  0.18549764     0.74200
N1072       N  0.03822163  0.78640588  0.16085258    -0.26100
Co1073     Co  0.50442784  0.80835317  0.19203304     0.74100
C1074       C  0.08681789  0.85494770  0.22382897     0.42500
N1075       N  0.05156018  0.76922619  0.29225519     0.00900
N1076       N  0.04410508  0.82959993  0.21349548     0.01000
N1077       N  0.44096684  0.74225420  0.15830164    -0.47000
H1078       H  0.05864277  0.67210408  0.16623871     0.06800
N1079       N  0.03435527  0.75606297  0.15785099     0.01300
N1080       N  0.47422979  0.82910051  0.22541891     0.01000
C1081       C  0.43982481  0.85530183  0.25115052     0.42600
N1082       N  0.04944113  0.73896807  0.28866157    -0.25600
C1083       C  0.45040835  0.67623540  0.20524483    -0.06500
N1084       N  0.06585920  0.68015838  0.24241824    -0.46700
N1085       N  0.45067161  0.84878056  0.22146465    -0.46900
C1086       C  0.44146065  0.65887052  0.23485133     0.42400
N1087       N  0.46632530  0.75413325  0.17027836     0.01300
N1088       N  0.48236495  0.73796793  0.29776941    -0.25600
N1089       N  0.03927901  0.69981933  0.20312459    -0.26100
N1090       N  0.48304175  0.76849466  0.30093629     0.00900
H1091       H  0.45683572  0.70011307  0.32291229     0.06800
H1092       H  0.45906708  0.83843771  0.29887634     0.06800
N1093       N  0.46606546  0.78489476  0.17146778    -0.26100
N1094       N  0.04984686  0.82081963  0.24288024    -0.25800
N1095       N  0.47637582  0.69450518  0.24412630     0.01300
C1096       C  0.07747911  0.76667884  0.13067645     0.42700
C1097       C  0.06984208  0.72497714  0.30746294    -0.07000
N1098       N  0.47982601  0.82331937  0.25566045    -0.25800
H1099       H  0.08730054  0.83085344  0.27336466     0.06800
N1100       N  0.05618193  0.74425428  0.14005701    -0.45200
H1101       H  0.07070563  0.69999671  0.31195389     0.06800
C1102       C  0.44849629  0.75097496  0.33584675     0.42500
C1103       C  0.05883531  0.67905332  0.19036571    -0.06500
Co1104     Co  0.51342369  0.71739008  0.26598458     0.73800
N1105       N  0.07162466  0.77664265  0.31452126    -0.46700
C1106       C  0.42212427  0.76560364  0.15023745     0.42800
N1107       N  0.45889737  0.67144868  0.25757108    -0.46700
Co1108     Co  0.51585117  0.79599131  0.27333550     0.73900
C1109       C  0.45944556  0.83843938  0.27324365    -0.07000
C1110       C  0.06556772  0.79529195  0.14507327    -0.06600
N1111       N  0.47217336  0.69762303  0.21340597    -0.26100
N1112       N  0.06518874  0.85045350  0.20149800    -0.46900
H1113       H  0.43125069  0.81837826  0.15743710     0.06800
C1114       C  0.46146024  0.72491856  0.31890753    -0.07000
Cl1115     Cl  0.50883102  0.76206508  0.22932226    -0.50000
C1116       C  0.08489285  0.74984651  0.32493369     0.42500
H1117       H  0.44417455  0.67135694  0.18127956     0.06700
N1118       N  0.46354190  0.77725904  0.32381414    -0.46700
C1119       C  0.23840385  0.86045765  0.09250910     0.80200
N1120       N  0.20767269  0.85482091  0.09959979    -0.78200
C1121       C  0.19073918  0.87334536  0.11787525     0.82600
N1122       N  0.20577355  0.89645167  0.13252053    -0.78100
C1123       C  0.23718810  0.90171160  0.12869705     0.82700
N1124       N  0.25374651  0.88469247  0.10692912    -0.79800
C1125       C  0.25863691  0.62577601  0.05819878     0.80200
N1126       N  0.27276424  0.61487927  0.08496770    -0.78200
C1127       C  0.26473582  0.58550913  0.09701699     0.82600
N1128       N  0.24226642  0.56862036  0.08314644    -0.78100
C1129       C  0.22664644  0.58028294  0.05857566     0.82700
N1130       N  0.23502737  0.60876881  0.04606058    -0.79800
C1131       C  0.25360139  0.63543141  0.39879280     0.80200
N1132       N  0.22912983  0.62015198  0.41445762    -0.78200
C1133       C  0.21643921  0.59362148  0.40371786     0.82600
N1134       N  0.22814202  0.58220546  0.37664042    -0.78100
C1135       C  0.25215464  0.59712969  0.35989211     0.82700
N1136       N  0.26474774  0.62441125  0.37068616    -0.79800
C1137       C  0.23915498  0.92747133  0.36411928     0.80200
N1138       N  0.25869366  0.90404201  0.37257712    -0.78200
C1139       C  0.25469510  0.88954085  0.40189014     0.82600
N1140       N  0.23192687  0.89878726  0.42177426    -0.78100
C1141       C  0.21076889  0.91900808  0.41217760     0.82700
N1142       N  0.21400197  0.93321987  0.38310652    -0.79800
N1143       N  0.10947329  0.54913047  0.00768961    -0.36700
N1144       N  0.07331507  0.97893320  0.06844847    -0.57200
N1145       N  0.07550404  0.93618249  0.01760105    -0.36700
N1146       N  0.08393075  0.97897375  0.46282853    -0.57200
C1147       C  0.09020725  0.54043055  0.03273008     0.26900
C1148       C  0.08734070  0.54012315  0.48146377     0.26900
C1149       C  0.06727570  0.91725664  0.04338022     0.26900
C1150       C  0.07646225  0.91534002  0.49416273     0.26900
C1151       C  0.08845601  0.50885650  0.08210251     0.35500
C1152       C  0.07770541  0.95326797  0.08685746     0.35500
C1153       C  0.09109278  0.50535504  0.43909452     0.35500
C1154       C  0.08962999  0.95266766  0.44805371     0.35500
C1155       C  0.06097360  0.53210918  0.02238121    -0.22000
C1156       C  0.05752271  0.53058630  0.49178545    -0.22000
C1157       C  0.06039674  0.88747551  0.03330728    -0.22000
C1158       C  0.06883514  0.88469484  0.50342566    -0.22000
C1159       C  0.09936645  0.49963131  0.11139354    -0.23000
C1160       C  0.09145147  0.96199507  0.11480391    -0.23000
C1161       C  0.10299444  0.49405254  0.41132624    -0.23000
C1162       C  0.10481309  0.96032695  0.41889437    -0.23000
C1163       C  0.10102454  0.53432129  0.06338462    -0.18400
C1164       C  0.10009871  0.53424593  0.45147702    -0.18400
C1165       C  0.09166765  0.92352909  0.46472508    -0.18400
C1166       C  0.07675107  0.92281243  0.07487447    -0.18400
H1167       H  0.04102136  0.52307207  0.03656413     0.14500
H1168       H  0.03892582  0.52259445  0.47699731     0.14500
H1169       H  0.05596867  0.86665283  0.04830172     0.14500
H1170       H  0.06883245  0.86479280  0.48841609     0.14500
H1171       H  0.11390851  0.51329335  0.12654737     0.12800
H1172       H  0.10007768  0.94737048  0.13368660     0.12800
H1173       H  0.11640351  0.50688643  0.39272344     0.12800
H1174       H  0.11551022  0.94484197  0.40255764     0.12800
H1175       H  0.13355367  0.55361215  0.00798734     0.26100
H1176       H  0.08576328  0.95849385  0.01782876     0.26100
C1177       C  0.09293582  0.88627650  0.23531368     0.80200
N1178       N  0.11940725  0.90374468  0.22762376    -0.78200
C1179       C  0.12801573  0.92716262  0.24698817     0.82600
N1180       N  0.11201120  0.93067656  0.27498582    -0.78100
C1181       C  0.08566786  0.91329442  0.28202988     0.82700
N1182       N  0.07582167  0.89252736  0.26154270    -0.79800
C1183       C  0.39121320  0.58618755  0.23000608     0.80200
N1184       N  0.40295168  0.61588144  0.22304540    -0.78200
C1185       C  0.42818897  0.62672242  0.23907403     0.82600
N1186       N  0.43905547  0.60914203  0.26350947    -0.78100
C1187       C  0.42734603  0.58003596  0.27046268     0.82700
N1188       N  0.40428941  0.56860558  0.25302861    -0.79800
C1189       C  0.08762970  0.63365709  0.22208059     0.80200
N1190       N  0.07066911  0.61831028  0.24562632    -0.78200
C1191       C  0.08203349  0.59426212  0.26246619     0.82600
N1192       N  0.11063670  0.58388717  0.25464475    -0.78100
C1193       C  0.12786403  0.59705821  0.22975032     0.82700
N1194       N  0.11701957  0.62338267  0.21424156    -0.79800
C1195       C  0.37618203  0.91527812  0.26204704     0.80200
N1196       N  0.39488735  0.89466799  0.24610140    -0.78200
C1197       C  0.41762161  0.87915258  0.26295272     0.82600
N1198       N  0.42074164  0.88453795  0.29426271    -0.78100
C1199       C  0.40254555  0.90436591  0.30944886     0.82700
N1200       N  0.38098483  0.91960114  0.29318982    -0.79800
N1201       N  0.44072061  0.00272375  0.43636418    -0.36700
N1202       N  0.48183150  0.54270093  0.40708481    -0.57200
N1203       N  0.02931855  0.99935564  0.39964410    -0.36700
N1204       N  0.48751035  0.95541843  0.42316568    -0.57200
C1205       C  0.41434749  0.51736566  0.41618611     0.26900
C1206       C  0.42216503  0.97652410  0.43872830     0.26900
C1207       C  0.03427293  0.51960627  0.37855126     0.26900
C1208       C  0.03920170  0.97293297  0.38641343     0.26900
C1209       C  0.45549905  0.55889167  0.40957212     0.35500
C1210       C  0.00062877  0.56084884  0.39772191     0.35500
C1211       C  0.46428206  0.93883723  0.43875769     0.35500
C1212       C  0.00506018  0.93365764  0.41685028     0.35500
C1213       C  0.38475639  0.50559193  0.41040499    -0.22000
C1214       C  0.39150125  0.98430151  0.43342019    -0.22000
C1215       C  0.05268636  0.50851206  0.35423279    -0.22000
C1216       C  0.05965162  0.98082588  0.36105317    -0.22000
C1217       C  0.46248927  0.59023366  0.40240612    -0.23000
C1218       C  0.99100643  0.59129468  0.39827327    -0.23000
C1219       C  0.47355588  0.90837877  0.44401111    -0.23000
C1220       C  0.99686322  0.90346660  0.42725797    -0.23000
C1221       C  0.42679640  0.54528564  0.40177976    -0.18400
C1222       C  0.43317423  0.94621828  0.43344129    -0.18400
C1223       C  0.02942457  0.94168118  0.39491459    -0.18400
C1224       C  0.02708976  0.55144639  0.38069267    -0.18400
H1225       H  0.36657632  0.51738571  0.39782873     0.14500
H1226       H  0.37180161  0.96818898  0.43134334     0.14500
H1227       H  0.06490301  0.52129778  0.33484281     0.14500
H1228       H  0.07180415  0.96600950  0.34526168     0.14500
H1229       H  0.44605878  0.60832271  0.39770872     0.12800
H1230       H  0.00397840  0.61216229  0.38981362     0.12800
H1231       H  0.45917237  0.88876143  0.45324311     0.12800
H1232       H  0.01001247  0.88267206  0.42358470     0.12800
H1233       H  0.46493623  0.00359453  0.43671628     0.26100
H1234       H  0.01408518  0.00060529  0.41916741     0.26100
C1235       C  0.15538736  0.94790058  0.23979116     0.42400
N1236       N  0.18860107  0.98494326  0.24729024     0.01300
C1237       C  0.29429356  0.55704422  0.14228113    -0.06600
H1238       H  0.30235310  0.93177291  0.15153249     0.06800
C1239       C  0.33103085  0.95154604  0.27235368    -0.06900
Co1240     Co  0.21939390  0.51098106  0.19109493     0.74200
N1241       N  0.27385192  0.96818612  0.17078804    -0.26100
Co1242     Co  0.30125078  0.50255230  0.19378584     0.74100
C1243       C  0.34903232  0.93359454  0.24993419     0.42500
N1244       N  0.26346059  0.98040826  0.30115286     0.00900
N1245       N  0.32178875  0.96841874  0.22492369     0.01000
N1246       N  0.24278763  0.56428993  0.14625595    -0.47000
H1247       H  0.16572544  0.95048771  0.18567520     0.06800
N1248       N  0.24348757  0.97301792  0.16976122     0.01300
N1249       N  0.32724809  0.53783247  0.21562627     0.01000
C1250       C  0.35837841  0.57706660  0.22499028     0.42600
N1251       N  0.23312582  0.98385297  0.29904572    -0.25600
C1252       C  0.17382987  0.56868076  0.19829761    -0.06500
N1253       N  0.16778402  0.96575714  0.26194908    -0.46700
N1254       N  0.34955768  0.55692695  0.20262489    -0.46900
C1255       C  0.16023465  0.58513937  0.22548739     0.42400
N1256       N  0.25082425  0.54138443  0.16574597     0.01300
N1257       N  0.24097952  0.55274542  0.29224337    -0.25600
N1258       N  0.19050918  0.98143907  0.21642312    -0.26100
N1259       N  0.27123583  0.55044870  0.29581171     0.00900
H1260       H  0.20616810  0.58037787  0.31400526     0.06800
H1261       H  0.34144527  0.57589113  0.27724619     0.06800
N1262       N  0.28115928  0.53676562  0.16435450    -0.26100
N1263       N  0.31614244  0.97272416  0.25534542    -0.25800
N1264       N  0.19454742  0.55186716  0.24144113     0.01300
C1265       C  0.24895876  0.93045433  0.14415491     0.42700
C1266       C  0.21831038  0.96305890  0.31907520    -0.07000
N1267       N  0.32205072  0.54286660  0.24592256    -0.25800
H1268       H  0.33190882  0.95112778  0.29795195     0.06800
N1269       N  0.22833971  0.95124612  0.15452769    -0.47000
H1270       H  0.19330772  0.96099440  0.32339512     0.06800
C1271       C  0.25741830  0.58707603  0.32701809     0.42500
C1272       C  0.17020020  0.95829279  0.20921438    -0.06500
Co1273     Co  0.21445620  0.51850597  0.27127392     0.73800
N1274       N  0.27053783  0.95809507  0.32219927    -0.46700
C1275       C  0.26874001  0.57578122  0.13025764     0.42800
N1276       N  0.17433569  0.57255053  0.25102785    -0.46700
Co1277     Co  0.29377234  0.01079014  0.27468693     0.73900
C1278       C  0.33938092  0.56764970  0.25347229    -0.07000
C1279       C  0.27965914  0.94167000  0.15511296    -0.06600
N1280       N  0.19487403  0.54875335  0.21054922    -0.26100
N1281       N  0.34256434  0.94589444  0.22050237    -0.46900
H1282       H  0.31863795  0.55802303  0.13493686     0.06800
C1283       C  0.23058289  0.57567176  0.30978658    -0.07000
Cl1284     Cl  0.25728897  0.51105614  0.23294839    -0.50000
C1285       C  0.24306456  0.94565806  0.33402655     0.42500
H1286       H  0.16649940  0.56928890  0.17399056     0.06700
N1287       N  0.28177215  0.56967556  0.31745261    -0.46700
C1288       C  0.40951848  0.91374329  0.34156129    -0.05500
C1289       C  0.40472762  0.89325542  0.36822468    -0.33000
C1290       C  0.41115509  0.90334321  0.39885861     0.36300
C1291       C  0.42272793  0.93405563  0.40258042    -0.05900
C1292       C  0.42784667  0.95384681  0.37541701    -0.32900
C1293       C  0.42075905  0.94424903  0.34546021     0.36200
H1294       H  0.39572989  0.86969067  0.36533023     0.16600
O1295       O  0.40541213  0.88356241  0.42485891    -0.60400
H1296       H  0.43798663  0.97696828  0.37745266     0.16600
O1297       O  0.42643090  0.96443232  0.31976174    -0.60500
H1298       H  0.40802956  0.97791242  0.31904141     0.43600
H1299       H  0.41874279  0.86536013  0.42162398     0.43500
C1300       C  0.03948666  0.57223207  0.35393340    -0.05500
C1301       C  0.02094034  0.57466375  0.32707046    -0.33000
C1302       C  0.03452030  0.58155826  0.29702916     0.36300
C1303       C  0.06710891  0.58601921  0.29355895    -0.05900
C1304       C  0.08525952  0.58648541  0.32069030    -0.32900
C1305       C  0.07163342  0.57969137  0.35080761     0.36200
H1306       H  0.99626981  0.56829894  0.32900705     0.16600
O1307       O  0.01612310  0.58145090  0.27098024    -0.60400
H1308       H  0.11018625  0.59149456  0.31848677     0.16600
O1309       O  0.09017279  0.57763844  0.37664223    -0.60500
H1310       H  0.10194161  0.55828289  0.37423264     0.43600
H1311       H  0.00673839  0.60231946  0.26993198     0.43500
C1312       C  0.42133611  0.54943348  0.36740517    -0.05500
C1313       C  0.44047276  0.53336763  0.34604829    -0.33000
C1314       C  0.44302029  0.54287036  0.31399503     0.36300
C1315       C  0.42679106  0.56892045  0.30343608    -0.05900
C1316       C  0.40601155  0.58333303  0.32412540    -0.32900
C1317       C  0.40282811  0.57339443  0.35581282     0.36200
H1318       H  0.45487734  0.51471499  0.35471141     0.16600
O1319       O  0.46263453  0.52787511  0.29377795    -0.60400
H1320       H  0.39214882  0.60247929  0.31555397     0.16600
O1321       O  0.38247573  0.58803182  0.37539166    -0.60500
H1322       H  0.36251145  0.57582434  0.37461831     0.43600
H1323       H  0.44954963  0.51101120  0.28501799     0.43500
C1324       C  0.06944643  0.91304565  0.31299946    -0.05500
C1325       C  0.03698010  0.91600752  0.31417479    -0.33000
C1326       C  0.02120437  0.91882860  0.34325295     0.36300
C1327       C  0.03809919  0.91841368  0.37138479    -0.05900
C1328       C  0.06894718  0.90862103  0.37042132    -0.32900
C1329       C  0.08512791  0.90682447  0.34127220     0.36200
H1330       H  0.02426803  0.91867851  0.29246951     0.16600
O1331       O  0.99043929  0.92675667  0.34363978    -0.60400
H1332       H  0.08137764  0.90677782  0.39205070     0.16600
O1333       O  0.11651637  0.90147751  0.34073381    -0.60500
H1334       H  0.11815661  0.87891450  0.33687338     0.43600
H1335       H  0.99063923  0.94959602  0.33877295     0.43500
C1336       C  0.12292041  0.91054510  0.46046666    -0.05500
C1337       C  0.12866966  0.89236990  0.43427653    -0.33000
C1338       C  0.15736416  0.89578361  0.41771071     0.36300
C1339       C  0.18067997  0.91617276  0.42865435    -0.05900
C1340       C  0.17707852  0.92897658  0.45822984    -0.32900
C1341       C  0.14817115  0.92678117  0.47402757     0.36200
H1342       H  0.10999438  0.87846075  0.42470612     0.16600
O1343       O  0.16199726  0.88050006  0.39007661    -0.60400
H1344       H  0.19602128  0.94246864  0.46801901     0.16600
O1345       O  0.14389741  0.94361456  0.50065773    -0.60500
H1346       H  0.13757242  0.96458824  0.49322891     0.43600
H1347       H  0.16282689  0.85805710  0.39651048     0.43500
C1348       C  0.18752491  0.57954714  0.41866620    -0.05500
C1349       C  0.18611272  0.54755281  0.42600210    -0.33000
C1350       C  0.15831523  0.53276772  0.43752393     0.36300
C1351       C  0.13068988  0.54985276  0.44091322    -0.05900
C1352       C  0.13257001  0.58232435  0.43497830    -0.32900
C1353       C  0.16071705  0.59721329  0.42389724     0.36200
H1354       H  0.20675564  0.53385967  0.42279990     0.16600
O1355       O  0.15871168  0.50173442  0.44636998    -0.60400
H1356       H  0.11198446  0.59603421  0.43820671     0.16600
O1357       O  0.16128868  0.62864645  0.41639666    -0.60500
H1358       H  0.16405729  0.63890532  0.43681593     0.43600
H1359       H  0.16495644  0.49081840  0.42698461     0.43500
C1360       C  0.19452642  0.56869317  0.05635931    -0.05500
C1361       C  0.18844398  0.53641492  0.05670099    -0.33000
C1362       C  0.15809706  0.52434033  0.06224033     0.36300
C1363       C  0.13354086  0.54475738  0.06816670    -0.05900
C1364       C  0.13998132  0.57675022  0.06898697    -0.32900
C1365       C  0.16999530  0.58894797  0.06274319     0.36200
H1366       H  0.20732438  0.52058479  0.05288345     0.16600
O1367       O  0.15223200  0.49295735  0.05938713    -0.60400
H1368       H  0.12136321  0.59234775  0.07315089     0.16600
O1369       O  0.17516152  0.62064802  0.06369560    -0.60500
H1370       H  0.18096249  0.62445114  0.08580782     0.43600
H1371       H  0.15895009  0.48295395  0.07953156     0.43500
C1372       C  0.15866842  0.87878834  0.10771386    -0.05500
C1373       C  0.13264328  0.87907754  0.12885430    -0.33000
C1374       C  0.10369250  0.89004077  0.11824793     0.36300
C1375       C  0.10138761  0.90142821  0.08655267    -0.05900
C1376       C  0.12676870  0.89800953  0.06551999    -0.32900
C1377       C  0.15507599  0.88754279  0.07559881     0.36200
H1378       H  0.13502983  0.87193875  0.15353728     0.16600
O1379       O  0.07811855  0.89028321  0.13867962    -0.60400
H1380       H  0.12566227  0.90592210  0.04111533     0.16600
O1381       O  0.18034063  0.89002365  0.05464960    -0.60500
H1382       H  0.17423557  0.87867001  0.03564183     0.43600
H1383       H  0.08524723  0.89990942  0.15829447     0.43500
C1384       C  0.42056840  0.63484274  0.47237421    -0.05500
C1385       C  0.43297311  0.66227319  0.48486319    -0.33000
C1386       C  0.43573298  0.68982163  0.46611670     0.36300
C1387       C  0.42647878  0.68996972  0.43447426    -0.05900
C1388       C  0.41192117  0.66312832  0.42285404    -0.32900
C1389       C  0.40833870  0.63584809  0.44207853     0.36200
H1390       H  0.44231459  0.66174259  0.50844726     0.16600
O1391       O  0.44774516  0.71642216  0.47876454    -0.60400
H1392       H  0.40261883  0.66361919  0.39925450     0.16600
O1393       O  0.39339171  0.60997720  0.43112804    -0.60500
H1394       H  0.37107135  0.61214284  0.43731178     0.43600
H1395       H  0.47030786  0.71697601  0.47273228     0.43500
C1396       C  0.04223778  0.63446933  0.45796261    -0.05500
C1397       C  0.05503362  0.63051978  0.42754329    -0.33000
C1398       C  0.06819714  0.65613961  0.40952827     0.36300
C1399       C  0.06934626  0.68607724  0.42229812    -0.05900
C1400       C  0.05562144  0.69019974  0.45228852    -0.32900
C1401       C  0.04151823  0.66485497  0.46977037     0.36200
H1402       H  0.05572627  0.60738319  0.41826023     0.16600
O1403       O  0.08092345  0.65152119  0.37995396    -0.60400
H1404       H  0.05597106  0.71311621  0.46224380     0.16600
O1405       O  0.02836832  0.66965814  0.49912756    -0.60500
H1406       H  0.00695736  0.67660526  0.49504895     0.43600
H1407       H  0.10283224  0.64583143  0.38356696     0.43500
C1408       C  0.41747436  0.62250319  0.12120396    -0.05500
C1409       C  0.43199216  0.65164173  0.11435231    -0.33000
C1410       C  0.41565681  0.67870860  0.11738199     0.36300
C1411       C  0.38484150  0.67727096  0.13012248    -0.05900
C1412       C  0.37150959  0.64844418  0.14140993    -0.32900
C1413       C  0.38779051  0.62078125  0.13677194     0.36200
H1414       H  0.45456134  0.65331647  0.10193572     0.16600
O1415       O  0.42841358  0.70621627  0.10409481    -0.60400
H1416       H  0.34814469  0.64723289  0.15198543     0.16600
O1417       O  0.37368153  0.59239281  0.14501419    -0.60500
H1418       H  0.36705545  0.58354509  0.12487548     0.43600
H1419       H  0.45042185  0.70767595  0.11071020     0.43500
C1420       C  0.10315016  0.67589211  0.11668138    -0.05500
C1421       C  0.07337059  0.68245242  0.10566717    -0.33000
C1422       C  0.05082922  0.65906579  0.10264999     0.36300
C1423       C  0.05873709  0.62773472  0.10716079    -0.05900
C1424       C  0.08811569  0.62065361  0.11935449    -0.32900
C1425       C  0.11037675  0.64475675  0.12440642     0.36200
H1426       H  0.06769972  0.70598101  0.09828433     0.16600
O1427       O  0.02203297  0.66679161  0.09179579    -0.60400
H1428       H  0.09450412  0.59651992  0.12259932     0.16600
O1429       O  0.13949205  0.63745767  0.13443855    -0.60500
H1430       H  0.14041258  0.64478071  0.15637134     0.43600
H1431       H  0.02487080  0.66979915  0.06845786     0.43500
C1432       C  0.26065687  0.65829854  0.54716063     0.42400
N1433       N  0.24839990  0.69507767  0.51408303     0.01300
C1434       C  0.35199957  0.79995756  0.93092688    -0.06600
H1435       H  0.33995863  0.81046581  0.55611186     0.06800
C1436       C  0.22543992  0.83562934  0.54215480    -0.06900
Co1437     Co  0.30558910  0.72575162  0.97954676     0.74200
N1438       N  0.32296016  0.77996195  0.52012278    -0.26100
Co1439     Co  0.29979348  0.80667423  0.48615653     0.74100
C1440       C  0.24994713  0.84822965  0.56180680     0.42500
N1441       N  0.19269780  0.76986708  0.51656893     0.00900
N1442       N  0.27031793  0.82592192  0.52116264     0.01000
N1443       N  0.34669775  0.74873935  0.92375991    -0.47000
H1444       H  0.31325740  0.66759761  0.53645936     0.06800
N1445       N  0.32449546  0.74950706  0.51673753     0.01300
N1446       N  0.27665795  0.83082236  0.95190976     0.01000
C1447       C  0.26494297  0.85984370  0.91104095     0.42600
N1448       N  0.19620362  0.73945963  0.51550131    -0.25600
C1449       C  0.29435419  0.68196254  0.92083857    -0.06500
N1450       N  0.23659725  0.67257215  0.53340864    -0.46700
N1451       N  0.28803741  0.85261418  0.93109045    -0.46900
C1452       C  0.26618051  0.67006915  0.90508836     0.42400
N1453       N  0.32801380  0.75714416  0.94700393     0.01300
N1454       N  0.20085441  0.74278606  0.94348950    -0.25600
N1455       N  0.27914554  0.69621240  0.51348589    -0.26100
N1456       N  0.19656044  0.77294863  0.94421273     0.00900
H1457       H  0.17942483  0.70572344  0.91834623     0.06800
H1458       H  0.21454519  0.83964576  0.91349137     0.06800
N1459       N  0.32980284  0.78737054  0.95147222    -0.26100
N1460       N  0.23980133  0.82248883  0.51795139    -0.25800
N1461       N  0.25337087  0.70162610  0.94178330     0.01300
C1462       C  0.34854438  0.75752053  0.55997772     0.42700
C1463       C  0.17918865  0.72515158  0.53894663    -0.07000
N1464       N  0.24680264  0.82415165  0.94786647    -0.25800
H1465       H  0.20039141  0.83564067  0.54604386     0.06800
N1466       N  0.33917898  0.73547820  0.54008536    -0.47000
H1467       H  0.17720504  0.70016093  0.54356695     0.06800
C1468       C  0.16463547  0.75602168  0.90892354     0.42500
C1469       C  0.28919523  0.67389234  0.53374080    -0.06500
Co1470     Co  0.22562194  0.71889607  0.97746278     0.73800
N1471       N  0.17361471  0.77751058  0.54044095    -0.46700
C1472       C  0.36355059  0.77400219  0.91211666     0.42800
N1473       N  0.24225652  0.68384396  0.91980007    -0.46700
Co1474     Co  0.21748406  0.79828306  0.48193190     0.73900
C1475       C  0.23825813  0.83922142  0.92155116    -0.07000
C1476       C  0.33773022  0.78737978  0.54682858    -0.06600
N1477       N  0.28398992  0.70169928  0.94287623    -0.26100
N1478       N  0.27756803  0.84118678  0.54731074    -0.46900
H1479       H  0.35971047  0.82420482  0.92965203     0.06800
C1480       C  0.18266812  0.73046924  0.92180312    -0.07000
Cl1481     Cl  0.26075249  0.76250189  0.48230566    -0.50000
C1482       C  0.16422784  0.75011689  0.55549524     0.42500
H1483       H  0.31825567  0.67492282  0.91779887     0.06700
N1484       N  0.17388593  0.78168877  0.92491738    -0.46700
C1485       C  0.14452866  0.74440049  0.58465696     0.80200
N1486       N  0.14231085  0.71420790  0.59579823    -0.78200
C1487       C  0.12437076  0.70570823  0.62161954     0.82600
N1488       N  0.11116412  0.72848899  0.63794870    -0.78100
C1489       C  0.10796004  0.75754117  0.62466067     0.82700
N1490       N  0.12497930  0.76584325  0.59735954    -0.79800
C1491       C  0.36142473  0.74874872  0.59109024     0.80200
N1492       N  0.38077856  0.76796843  0.60756774    -0.78200
C1493       C  0.39246099  0.75680204  0.63561219     0.82600
N1494       N  0.38447047  0.72730375  0.64609232    -0.78100
C1495       C  0.37070267  0.70687577  0.62724135     0.82700
N1496       N  0.35840645  0.71800373  0.60012949    -0.79800
C1497       C  0.09701721  0.74557249  0.85530657     0.80200
N1498       N  0.12352704  0.75873173  0.86750294    -0.78200
C1499       C  0.13270754  0.74914326  0.89719663     0.82600
N1500       N  0.11565909  0.72616108  0.91357647    -0.78100
C1501       C  0.08988900  0.71285461  0.90131507     0.82700
N1502       N  0.08099783  0.72238657  0.87222797    -0.79800
C1503       C  0.43286738  0.75128107  0.86561631     0.80200
N1504       N  0.40897818  0.77017666  0.87426349    -0.78200
C1505       C  0.39653373  0.76762827  0.90458981     0.82600
N1506       N  0.40813696  0.74644146  0.92527856    -0.78100
C1507       C  0.42946832  0.72601214  0.91622134     0.82700
N1508       N  0.44148161  0.72806073  0.88612883    -0.79800
N1509       N  0.48016307  0.61285099  0.96888205    -0.36700
N1510       N  0.03225137  0.59519629  0.53536934    -0.57200
N1511       N  0.48907449  0.59286003  0.58429111    -0.36700
N1512       N  0.43397409  0.58888765  0.54276469    -0.57200
C1513       C  0.00492180  0.59490701  0.97315477     0.26900
C1514       C  0.45460642  0.59684897  0.98079027     0.26900
C1515       C  0.01107115  0.59765775  0.60334936     0.26900
C1516       C  0.46462901  0.58985008  0.60557792     0.26900
C1517       C  0.04949157  0.60580085  0.00434592     0.35500
C1518       C  0.05092180  0.60437359  0.55846737     0.35500
C1519       C  0.41396159  0.60457455  0.01976017     0.35500
C1520       C  0.41852033  0.59449300  0.56992947     0.35500
C1521       C  0.99427810  0.56637102  0.98680513    -0.22000
C1522       C  0.46210247  0.56709604  0.99092116    -0.22000
C1523       C  0.00397394  0.59446884  0.63555233    -0.22000
C1524       C  0.47594295  0.58733966  0.63596532    -0.22000
C1525       C  0.07748041  0.62067932  0.01073356    -0.23000
C1526       C  0.07875566  0.61729850  0.54511001    -0.23000
C1527       C  0.38650944  0.61623784  0.03126202    -0.23000
C1528       C  0.38909258  0.60576565  0.56297999    -0.23000
C1529       C  0.03513103  0.60796887  0.97492777    -0.18400
C1530       C  0.42721658  0.61153732  0.98953437    -0.18400
C1531       C  0.43312745  0.59720004  0.59952816    -0.18400
C1532       C  0.04144470  0.60614565  0.59077311    -0.18400
H1533       H  0.00721477  0.54838682  0.99796508     0.14500
H1534       H  0.44684641  0.54955431  0.00296001     0.14500
H1535       H  0.02031062  0.59500473  0.65460965     0.14500
H1536       H  0.46226851  0.58658264  0.65798688     0.14500
H1537       H  0.09406638  0.63220602  0.99395876     0.12800
H1538       H  0.09749217  0.62908162  0.55692739     0.12800
H1539       H  0.36931385  0.62886964  0.01804707     0.12800
H1540       H  0.37152991  0.61411409  0.57913824     0.12800
H1541       H  0.48164266  0.63647765  0.96188578     0.26100
H1542       H  0.48738615  0.59850960  0.56023392     0.26100
C1543       C  0.07843716  0.66827718  0.71562104     0.42400
N1544       N  0.04396926  0.70058704  0.73319808     0.01300
C1545       C  0.44023202  0.79426703  0.65547501    -0.06600
H1546       H  0.07513351  0.81980177  0.64607308     0.06800
C1547       C  0.07660326  0.83487873  0.75006416    -0.06900
Co1548     Co  0.50381247  0.72672088  0.68289857     0.74200
N1549       N  0.03668628  0.78781968  0.66112534    -0.26100
Co1550     Co  0.50516049  0.80836835  0.68887453     0.74100
C1551       C  0.08571045  0.85710801  0.72374522     0.42500
N1552       N  0.05135092  0.77104171  0.79174108     0.00900
N1553       N  0.04314027  0.83130085  0.71355628     0.01000
N1554       N  0.44312094  0.74203980  0.65362693    -0.47000
H1555       H  0.05815710  0.67314090  0.66565755     0.06800
N1556       N  0.03265853  0.75756599  0.65756787     0.01300
N1557       N  0.47428091  0.82926557  0.72163962     0.01000
C1558       C  0.43943102  0.85509873  0.74718785     0.42600
N1559       N  0.04986985  0.74085874  0.78767002    -0.25600
C1560       C  0.45197121  0.67580296  0.70186696    -0.06500
N1561       N  0.06683786  0.68228488  0.74144066    -0.46700
N1562       N  0.44997961  0.84806862  0.71750181    -0.46900
C1563       C  0.44241665  0.65862228  0.73142643     0.42400
N1564       N  0.46802710  0.75395078  0.66640071     0.01300
N1565       N  0.48140624  0.73922832  0.79524831    -0.25600
N1566       N  0.03902704  0.70101532  0.70255946    -0.26100
N1567       N  0.48229549  0.76983610  0.79788242     0.00900
H1568       H  0.45608038  0.70200661  0.82169414     0.06800
H1569       H  0.45929306  0.83922145  0.79495283     0.06800
N1570       N  0.46742519  0.78467074  0.66793993    -0.26100
N1571       N  0.04889903  0.82276215  0.74298637    -0.25800
N1572       N  0.47644653  0.69500834  0.74134231     0.01300
C1573       C  0.07584956  0.76860171  0.63087276     0.42700
C1574       C  0.07152162  0.72722522  0.80514524    -0.07000
N1575       N  0.48006644  0.82407259  0.75191737    -0.25800
H1576       H  0.08617249  0.83345391  0.77350043     0.06800
N1577       N  0.05445060  0.74601954  0.63952427    -0.45200
H1578       H  0.07340988  0.70224764  0.80890692     0.06800
C1579       C  0.44793282  0.75325739  0.83350914     0.42500
C1580       C  0.05874605  0.68035056  0.68968849    -0.06500
Co1581     Co  0.51300097  0.71818997  0.76399714     0.73800
N1582       N  0.07214073  0.77868582  0.81324452    -0.46700
C1583       C  0.42418163  0.76541314  0.64582547     0.42800
N1584       N  0.45897107  0.67179497  0.75449537    -0.46700
Co1585     Co  0.51561378  0.79683707  0.77042651     0.73900
C1586       C  0.45966788  0.83918326  0.76932417    -0.07000
C1587       C  0.06402873  0.79688449  0.64566899    -0.06600
N1588       N  0.47308369  0.69769756  0.71043785    -0.26100
N1589       N  0.06400221  0.85237714  0.70152049    -0.46900
H1590       H  0.43251575  0.81805138  0.65404573     0.06800
C1591       C  0.46060084  0.72672756  0.81691142    -0.07000
Cl1592     Cl  0.50910282  0.76248105  0.72667171    -0.50000
C1593       C  0.08659817  0.75216036  0.82250815     0.42500
H1594       H  0.44660923  0.67050352  0.67775161     0.06700
N1595       N  0.46310000  0.77913586  0.82074291    -0.46700
C1596       C  0.24207903  0.86156788  0.59348068     0.80200
N1597       N  0.21231657  0.85395157  0.60321762    -0.78200
C1598       C  0.19558308  0.87189907  0.62239333     0.82600
N1599       N  0.21051017  0.89572036  0.63605812    -0.78100
C1600       C  0.24123734  0.90290575  0.62972355     0.82700
N1601       N  0.25698332  0.88693382  0.60650627    -0.79800
C1602       C  0.25674721  0.62570466  0.55869417     0.80200
N1603       N  0.27263361  0.61356867  0.58371424    -0.78200
C1604       C  0.26548387  0.58370975  0.59472392     0.82600
N1605       N  0.24235952  0.56722619  0.58127202    -0.78100
C1606       C  0.22510386  0.57995926  0.55843619     0.82700
N1607       N  0.23231700  0.60924945  0.54727624    -0.79800
C1608       C  0.25946625  0.63795750  0.89517016     0.80200
N1609       N  0.23664693  0.62215947  0.91273583    -0.78200
C1610       C  0.22343895  0.59551492  0.90297683     0.82600
N1611       N  0.23299699  0.58429894  0.87499491    -0.78100
C1612       C  0.25559542  0.59953385  0.85654177     0.82700
N1613       N  0.26853960  0.62713187  0.86625019    -0.79800
C1614       C  0.24154493  0.93005667  0.86610804     0.80200
N1615       N  0.26095558  0.90668746  0.87500803    -0.78200
C1616       C  0.25665166  0.89232308  0.90435973     0.82600
N1617       N  0.23356428  0.90158583  0.92390141    -0.78100
C1618       C  0.21260697  0.92197224  0.91400699     0.82700
N1619       N  0.21625897  0.93602800  0.88485017    -0.79800
N1620       N  0.10524816  0.54496116  0.50644020    -0.36700
N1621       N  0.07760385  0.97543789  0.57114072    -0.57200
N1622       N  0.07759068  0.93291759  0.52013328    -0.36700
N1623       N  0.08559630  0.98120750  0.96068174    -0.57200
C1624       C  0.08775785  0.53568508  0.53252821     0.26900
C1625       C  0.09353676  0.54357883  0.98156677     0.26900
C1626       C  0.07176228  0.91338782  0.54603452     0.26900
C1627       C  0.07530883  0.91828841  0.99181426     0.26900
C1628       C  0.08965990  0.50257881  0.58055505     0.35500
C1629       C  0.08262611  0.94976271  0.58926932     0.35500
C1630       C  0.10067325  0.50753699  0.94076173     0.35500
C1631       C  0.09099465  0.95475979  0.94609154     0.35500
C1632       C  0.05768568  0.52778730  0.52424288    -0.22000
C1633       C  0.06319295  0.53414293  0.98988615    -0.22000
C1634       C  0.06562353  0.88347050  0.53601729    -0.22000
C1635       C  0.06586849  0.88808452  0.00094727    -0.22000
C1636       C  0.10210522  0.49289797  0.60894275    -0.23000
C1637       C  0.09742525  0.95837422  0.61669409    -0.23000
C1638       C  0.11397612  0.49539960  0.91400451    -0.23000
C1639       C  0.10686145  0.96198099  0.91720529    -0.23000
C1640       C  0.10072925  0.52874262  0.56200495    -0.18400
C1641       C  0.10846668  0.53684323  0.95283589    -0.18400
C1642       C  0.09208667  0.92574046  0.96304067    -0.18400
C1643       C  0.08154967  0.91933121  0.57731389    -0.18400
H1644       H  0.03872020  0.51847350  0.53964090     0.14500
H1645       H  0.04592017  0.52560778  0.97387421     0.14500
H1646       H  0.06277174  0.86238549  0.55092012     0.14500
H1647       H  0.06602522  0.86796983  0.98623227     0.14500
H1648       H  0.11742482  0.50629247  0.62357579     0.12800
H1649       H  0.10675742  0.94345757  0.63502415     0.12800
H1650       H  0.12844952  0.50763107  0.89579930     0.12800
H1651       H  0.11702060  0.94618334  0.90084843     0.12800
H1652       H  0.12936955  0.54937216  0.50520831     0.26100
H1653       H  0.08679181  0.95566885  0.51998637     0.26100
C1654       C  0.09238316  0.88859599  0.73473868     0.80200
N1655       N  0.11926103  0.90552708  0.72702407    -0.78200
C1656       C  0.12840389  0.92885314  0.74634522     0.82600
N1657       N  0.11248546  0.93264334  0.77436251    -0.78100
C1658       C  0.08577677  0.91580972  0.78142845     0.82700
N1659       N  0.07545910  0.89526302  0.76094473    -0.79800
C1660       C  0.39232677  0.58547771  0.72835422     0.80200
N1661       N  0.40420689  0.61494169  0.72029837    -0.78200
C1662       C  0.42951851  0.62629597  0.73591368     0.82600
N1663       N  0.44037027  0.60946056  0.76084091    -0.78100
C1664       C  0.42838686  0.58075677  0.76911131     0.82700
N1665       N  0.40514558  0.56878152  0.75224968    -0.79800
C1666       C  0.08990498  0.63599287  0.72160283     0.80200
N1667       N  0.07418286  0.62096599  0.74616367    -0.78200
C1668       C  0.08645156  0.59734606  0.76287021     0.82600
N1669       N  0.11467827  0.58694840  0.75395572    -0.78100
C1670       C  0.13085381  0.59972410  0.72822085     0.82700
N1671       N  0.11918570  0.62579899  0.71272540    -0.79800
C1672       C  0.37151378  0.91013405  0.75998809     0.80200
N1673       N  0.39285216  0.89308363  0.74281335    -0.78200
C1674       C  0.41376910  0.87506246  0.75966476     0.82600
N1675       N  0.41357201  0.87603818  0.79182259    -0.78100
C1676       C  0.39301957  0.89252347  0.80811406     0.82700
N1677       N  0.37241685  0.90904274  0.79201471    -0.79800
N1678       N  0.43353616  0.99693734  0.93231983    -0.36700
N1679       N  0.48366895  0.54634108  0.90617180    -0.57200
N1680       N  0.02943680  0.00094927  0.90007063    -0.36700
N1681       N  0.48121849  0.95111150  0.91929751    -0.57200
C1682       C  0.41578940  0.52393847  0.91702252     0.26900
C1683       C  0.41522809  0.97064967  0.93176199     0.26900
C1684       C  0.04184729  0.52266866  0.88222409     0.26900
C1685       C  0.03989639  0.97461717  0.88707216     0.26900
C1686       C  0.45819280  0.56369888  0.90925354     0.35500
C1687       C  0.00690442  0.56448108  0.89842890     0.35500
C1688       C  0.45808103  0.93350117  0.93391385     0.35500
C1689       C  0.00561988  0.93519703  0.91691827     0.35500
C1690       C  0.38574550  0.51302557  0.91196983    -0.22000
C1691       C  0.38529659  0.97844905  0.92318414    -0.22000
C1692       C  0.06141405  0.51105295  0.85909563    -0.22000
C1693       C  0.06050173  0.98265869  0.86191476    -0.22000
C1694       C  0.46638543  0.59480392  0.90237614    -0.23000
C1695       C  0.99641861  0.59465352  0.89562243    -0.23000
C1696       C  0.46799589  0.90313217  0.93825881    -0.23000
C1697       C  0.99737404  0.90500842  0.92728755    -0.23000
C1698       C  0.42885173  0.55134172  0.90201671    -0.18400
C1699       C  0.42683038  0.94023280  0.92828311    -0.18400
C1700       C  0.03023714  0.94329179  0.89531745    -0.18400
C1701       C  0.03393068  0.55448682  0.88261985    -0.18400
H1702       H  0.36774157  0.52528150  0.89956976     0.14500
H1703       H  0.36610068  0.96239634  0.91867416     0.14500
H1704       H  0.07397414  0.52316883  0.83953879     0.14500
H1705       H  0.07319271  0.96791868  0.84645237     0.14500
H1706       H  0.45069830  0.61375594  0.89856681     0.12800
H1707       H  0.00909372  0.61508408  0.88555896     0.12800
H1708       H  0.45388504  0.88292061  0.94641359     0.12800
H1709       H  0.01066141  0.88425039  0.92390949     0.12800
H1710       H  0.45743247  0.99804963  0.93588153     0.26100
H1711       H  0.01399882  0.00209870  0.91942867     0.26100
C1712       C  0.15641954  0.94903118  0.73934038     0.42400
N1713       N  0.19027362  0.98553706  0.74742052     0.01300
C1714       C  0.29562105  0.55480943  0.63967850    -0.06600
H1715       H  0.30542934  0.93493648  0.65172590     0.06800
C1716       C  0.33243091  0.95256028  0.77158951    -0.06900
Co1717     Co  0.22032698  0.51070478  0.68942584     0.74200
N1718       N  0.27607487  0.97076526  0.67073411    -0.26100
Co1719     Co  0.30214591  0.50134627  0.69249416     0.74100
C1720       C  0.34854691  0.93371253  0.74848501     0.42500
N1721       N  0.26549650  0.98150403  0.80161393     0.00900
N1722       N  0.32314984  0.97033397  0.72461452     0.01000
N1723       N  0.24422977  0.56286551  0.64415769    -0.47000
H1724       H  0.16667113  0.95260927  0.68517569     0.06800
N1725       N  0.24565552  0.97514206  0.66953507     0.01300
N1726       N  0.32836834  0.53678465  0.71396316     0.01000
C1727       C  0.35956414  0.57605130  0.72312190     0.42600
N1728       N  0.23510517  0.98461368  0.79943372    -0.25600
C1729       C  0.17586365  0.56991461  0.69613729    -0.06500
N1730       N  0.16916714  0.96639800  0.76174999    -0.46700
N1731       N  0.35088409  0.55563544  0.70092075    -0.46900
C1732       C  0.16309121  0.58734850  0.72319228     0.42400
N1733       N  0.25219898  0.54025265  0.66394393     0.01300
N1734       N  0.24207157  0.55338072  0.79044998    -0.25600
N1735       N  0.19209867  0.98251699  0.71645462    -0.26100
N1736       N  0.27235804  0.55098578  0.79353618     0.00900
H1737       H  0.20794874  0.58205314  0.81202403     0.06800
H1738       H  0.34213596  0.57566652  0.77516096     0.06800
N1739       N  0.28245781  0.53521221  0.66238722    -0.26100
N1740       N  0.31818684  0.97454823  0.75516777    -0.25800
N1741       N  0.19628777  0.55276945  0.73926667     0.01300
C1742       C  0.25221234  0.93284913  0.64356545     0.42700
C1743       C  0.22046982  0.96412790  0.81993170    -0.07000
N1744       N  0.32295279  0.54225310  0.74412762    -0.25800
H1745       H  0.33323707  0.95136106  0.79719619     0.06800
N1746       N  0.23105149  0.95318830  0.65398310    -0.47000
H1747       H  0.19549585  0.96215324  0.82448873     0.06800
C1748       C  0.25959538  0.58869907  0.82382771     0.42500
C1749       C  0.17142278  0.95977327  0.70888479    -0.06500
Co1750     Co  0.21527677  0.51919490  0.76959299     0.73800
N1751       N  0.27274109  0.95981705  0.82328162    -0.46700
C1752       C  0.27009445  0.57364901  0.62769675     0.42800
N1753       N  0.17712347  0.57446921  0.74866314    -0.46700
Co1754     Co  0.29569256  0.01224245  0.77522039     0.73900
C1755       C  0.34028919  0.56708059  0.75150307    -0.07000
C1756       C  0.28253513  0.94450152  0.65495270    -0.06600
N1757       N  0.19632419  0.54929592  0.70843932    -0.26100
N1758       N  0.34211215  0.94647254  0.71933783    -0.46900
H1759       H  0.31991780  0.55538055  0.63205228     0.06800
C1760       C  0.23221770  0.57684982  0.80764017    -0.07000
Cl1761     Cl  0.25807746  0.51080240  0.73139756    -0.50000
C1762       C  0.24536448  0.94740967  0.83544532     0.42500
H1763       H  0.16854562  0.57071675  0.67182726     0.06700
N1764       N  0.28354466  0.57083507  0.81423326    -0.46700
C1765       C  0.40083926  0.90284626  0.83954032    -0.05500
C1766       C  0.39466403  0.88441005  0.86739971    -0.33000
C1767       C  0.40243577  0.89595952  0.89709617     0.36300
C1768       C  0.41637638  0.92603755  0.89852963    -0.05900
C1769       C  0.42301679  0.94364569  0.87022529    -0.32900
C1770       C  0.41489686  0.93262961  0.84120570     0.36200
H1771       H  0.38375793  0.86138712  0.86614526     0.16600
O1772       O  0.39592889  0.87821629  0.92435556    -0.60400
H1773       H  0.43476519  0.96632695  0.87068572     0.16600
O1774       O  0.42177988  0.95081283  0.81424566    -0.60500
H1775       H  0.40451869  0.96565538  0.81266658     0.43600
H1776       H  0.40883403  0.85948895  0.92265994     0.43500
C1777       C  0.04658445  0.57432285  0.85518578    -0.05500
C1778       C  0.02730229  0.57775369  0.82899234    -0.33000
C1779       C  0.03999311  0.58534170  0.79879838     0.36300
C1780       C  0.07254224  0.58890193  0.79431468    -0.05900
C1781       C  0.09168075  0.58792583  0.82075741    -0.32900
C1782       C  0.07885446  0.58096755  0.85119238     0.36200
H1783       H  0.00252460  0.57219826  0.83156263     0.16600
O1784       O  0.02065458  0.58698859  0.77348541    -0.60400
H1785       H  0.11668483  0.59208036  0.81777350     0.16600
O1786       O  0.09817450  0.57773206  0.87635114    -0.60500
H1787       H  0.10951462  0.55825388  0.87302586     0.43600
H1788       H  0.01029939  0.60729005  0.77497866     0.43500
C1789       C  0.42311567  0.55521491  0.86758367    -0.05500
C1790       C  0.43930039  0.53610171  0.84651303    -0.33000
C1791       C  0.44130748  0.54367786  0.81396739     0.36300
C1792       C  0.42807678  0.57120973  0.80257864    -0.05900
C1793       C  0.41056759  0.58921029  0.82317357    -0.32900
C1794       C  0.40757526  0.58107998  0.85532252     0.36200
H1795       H  0.45187890  0.51633631  0.85562705     0.16600
O1796       O  0.45759437  0.52517374  0.79395989    -0.60400
H1797       H  0.39896336  0.60971663  0.81415260     0.16600
O1798       O  0.39033026  0.59926237  0.87458590    -0.60500
H1799       H  0.36868277  0.59048234  0.87411982     0.43600
H1800       H  0.44160336  0.51112261  0.78503739     0.43500
C1801       C  0.06970282  0.91564183  0.81251998    -0.05500
C1802       C  0.03735333  0.91947629  0.81389682    -0.33000
C1803       C  0.02167867  0.92179794  0.84312153     0.36300
C1804       C  0.03860820  0.92041708  0.87122938    -0.05900
C1805       C  0.06927694  0.91009453  0.86992463    -0.32900
C1806       C  0.08522440  0.90820734  0.84062516     0.36200
H1807       H  0.02466015  0.92296989  0.79228364     0.16600
O1808       O  0.99103547  0.93019938  0.84380556    -0.60400
H1809       H  0.08178028  0.90774522  0.89145729     0.16600
O1810       O  0.11625250  0.90125692  0.83979351    -0.60500
H1811       H  0.11670583  0.87870776  0.83545776     0.43600
H1812       H  0.99155613  0.95318005  0.83984977     0.43500
C1813       C  0.12336422  0.91229432  0.96006827    -0.05500
C1814       C  0.13001025  0.89490921  0.93347827    -0.33000
C1815       C  0.15888136  0.89934107  0.91738198     0.36300
C1816       C  0.18205340  0.91891893  0.92979098    -0.05900
C1817       C  0.17767390  0.93048553  0.95989799    -0.32900
C1818       C  0.14823318  0.92808042  0.97478998     0.36200
H1819       H  0.11173455  0.88120428  0.92302239     0.16600
O1820       O  0.16373896  0.88599603  0.88870157    -0.60400
H1821       H  0.19637077  0.94344629  0.97072290     0.16600
O1822       O  0.14310901  0.94441634  0.00163104    -0.60500
H1823       H  0.13868487  0.96599188  0.99425865     0.43600
H1824       H  0.16618463  0.86344556  0.89376217     0.43500
C1825       C  0.19534503  0.58191308  0.91964421    -0.05500
C1826       C  0.19470452  0.55051742  0.92952954    -0.33000
C1827       C  0.16715718  0.53606824  0.94213879     0.36300
C1828       C  0.13912841  0.55270977  0.94349523    -0.05900
C1829       C  0.14045204  0.58484485  0.93573050    -0.32900
C1830       C  0.16840674  0.59954790  0.92405696     0.36200
H1831       H  0.21563282  0.53706991  0.92734145     0.16600
O1832       O  0.16802615  0.50584890  0.95371457    -0.60400
H1833       H  0.11957855  0.59832510  0.93779613     0.16600
O1834       O  0.16868667  0.63067041  0.91517101    -0.60500
H1835       H  0.17268124  0.64181500  0.93485988     0.43600
H1836       H  0.17448671  0.49341956  0.93544441     0.43500
C1837       C  0.19326547  0.56723204  0.55626480    -0.05500
C1838       C  0.18836382  0.53509408  0.55288656    -0.33000
C1839       C  0.15840388  0.52153267  0.55712847     0.36300
C1840       C  0.13314919  0.54017326  0.56567338    -0.05900
C1841       C  0.13839887  0.57181722  0.57038084    -0.32900
C1842       C  0.16798767  0.58561899  0.56526756     0.36200
H1843       H  0.20781006  0.52055434  0.54704584     0.16600
O1844       O  0.15364103  0.49058429  0.55106710    -0.60400
H1845       H  0.11927085  0.58581769  0.57758770     0.16600
O1846       O  0.17208812  0.61692550  0.57007219    -0.60500
H1847       H  0.17793395  0.61822567  0.59253852     0.43600
H1848       H  0.15949700  0.47896503  0.57066597     0.43500
C1849       C  0.16398973  0.87803856  0.61150933    -0.05500
C1850       C  0.13663754  0.87423696  0.63077190    -0.33000
C1851       C  0.10786643  0.88476667  0.61934615     0.36300
C1852       C  0.10680726  0.89879808  0.58859867    -0.05900
C1853       C  0.13385161  0.90019043  0.56934665    -0.32900
C1854       C  0.16218364  0.89103882  0.58053503     0.36200
H1855       H  0.13777848  0.86443037  0.65472988     0.16600
O1856       O  0.08135356  0.88246080  0.63840074    -0.60400
H1857       H  0.13366595  0.91129413  0.54613100     0.16600
O1858       O  0.18879054  0.89846917  0.56238250    -0.60500
H1859       H  0.18576654  0.88904956  0.54156482     0.43600
H1860       H  0.08521713  0.89638322  0.65615831     0.43500
C1861       C  0.42188791  0.64214976  0.97377089    -0.05500
C1862       C  0.43447015  0.66946125  0.98641404    -0.33000
C1863       C  0.43826233  0.69690858  0.96743952     0.36300
C1864       C  0.43029414  0.69683958  0.93534989    -0.05900
C1865       C  0.41607530  0.66997343  0.92347181    -0.32900
C1866       C  0.41121198  0.64304408  0.94289358     0.36200
H1867       H  0.44284190  0.66896250  0.01039160     0.16600
O1868       O  0.44981964  0.72358692  0.98032891    -0.60400
H1869       H  0.40777066  0.67024506  0.89946587     0.16600
O1870       O  0.39655654  0.61721488  0.93157443    -0.60500
H1871       H  0.37413008  0.61931372  0.93733882     0.43600
H1872       H  0.47264201  0.72377279  0.97565308     0.43500
C1873       C  0.04510294  0.63513344  0.95347434    -0.05500
C1874       C  0.06159841  0.63033069  0.92504252    -0.33000
C1875       C  0.07557802  0.65566660  0.90726394     0.36300
C1876       C  0.07338835  0.68620656  0.91819570    -0.05900
C1877       C  0.05619609  0.69111156  0.94613154    -0.32900
C1878       C  0.04182083  0.66592824  0.96357739     0.36200
H1879       H  0.06455631  0.60681297  0.91737190     0.16600
O1880       O  0.09218963  0.65031027  0.87984109    -0.60400
H1881       H  0.05430748  0.71449694  0.95470007     0.16600
O1882       O  0.02633415  0.67129367  0.99166292    -0.60500
H1883       H  0.00601129  0.67977710  0.98560327     0.43600
H1884       H  0.11399513  0.64756113  0.88638556     0.43500
C1885       C  0.42147382  0.62359001  0.61750484    -0.05500
C1886       C  0.43405715  0.65267524  0.60676826    -0.33000
C1887       C  0.41694700  0.67935415  0.60956859     0.36300
C1888       C  0.38738015  0.67762662  0.62523119    -0.05900
C1889       C  0.37619192  0.64919362  0.63951533    -0.32900
C1890       C  0.39311371  0.62190316  0.63535162     0.36200
H1891       H  0.45554871  0.65416955  0.59244459     0.16600
O1892       O  0.42785110  0.70666506  0.59430739    -0.60400
H1893       H  0.35391996  0.64789857  0.65238700     0.16600
O1894       O  0.38079837  0.59356015  0.64641091    -0.60500
H1895       H  0.36655313  0.58664120  0.62984918     0.43600
H1896       H  0.44939782  0.71046781  0.60154288     0.43500
C1897       C  0.10337048  0.67825751  0.61833662    -0.05500
C1898       C  0.07452335  0.68447850  0.60495180    -0.33000
C1899       C  0.05237104  0.66094595  0.60097742     0.36300
C1900       C  0.05951812  0.62975829  0.60805044    -0.05900
C1901       C  0.08820506  0.62302983  0.62200321    -0.32900
C1902       C  0.11018219  0.64729564  0.62743831     0.36200
H1903       H  0.06930053  0.70789490  0.59666261     0.16600
O1904       O  0.02468970  0.66827776  0.58729651    -0.60400
H1905       H  0.09422310  0.59899237  0.62678971     0.16600
O1906       O  0.13867718  0.64019352  0.63932372    -0.60500
H1907       H  0.14082529  0.65246138  0.65859647     0.43600
H1908       H  0.02963597  0.67088166  0.56422986     0.43500
C1909       C  0.76007144  0.15761420  0.04665668     0.42400
N1910       N  0.74885199  0.19421643  0.01304453     0.01300
C1911       C  0.85050606  0.29706013  0.43102887    -0.06600
H1912       H  0.83972640  0.30934750  0.05856973     0.06800
C1913       C  0.72496878  0.33434765  0.04101692    -0.06900
Co1914     Co  0.80262880  0.22535143  0.48188492     0.74200
N1915       N  0.82345772  0.27870144  0.02240629    -0.26100
Co1916     Co  0.80125394  0.30584067  0.98804952     0.74100
C1917       C  0.74835271  0.34628293  0.06213560     0.42500
N1918       N  0.69355469  0.26955534  0.01412209     0.00900
N1919       N  0.77075610  0.32462658  0.02232101     0.01000
N1920       N  0.84468547  0.24548054  0.42616272    -0.47000
H1921       H  0.81290955  0.16713471  0.03824309     0.06800
N1922       N  0.82514058  0.24824919  0.01908224     0.01300
N1923       N  0.77657792  0.33008705  0.45000632     0.01000
C1924       C  0.76684660  0.35698370  0.40699344     0.42600
N1925       N  0.69683876  0.23912493  0.01299990    -0.25600
C1926       C  0.79233806  0.17929348  0.42468866    -0.06500
N1927       N  0.73642255  0.17165704  0.03193097    -0.46700
N1928       N  0.78906879  0.35030922  0.42822515    -0.46900
C1929       C  0.76451722  0.16715450  0.40846739     0.42400
N1930       N  0.82607238  0.25510773  0.44884351     0.01300
N1931       N  0.69975842  0.24334454  0.44259320    -0.25600
N1932       N  0.77957672  0.19541568  0.01370554    -0.26100
N1933       N  0.69575167  0.27357326  0.44281203     0.00900
H1934       H  0.67831561  0.20615683  0.41773555     0.06800
H1935       H  0.71662026  0.33631736  0.40798552     0.06800
N1936       N  0.82824099  0.28552973  0.45203093    -0.26100
N1937       N  0.74050248  0.32151830  0.01752093    -0.25800
N1938       N  0.75111522  0.20036473  0.44352267     0.01300
C1939       C  0.84823088  0.25647445  0.06291829     0.42700
C1940       C  0.67904001  0.22489642  0.03593470    -0.07000
N1941       N  0.74687731  0.32350403  0.44526782    -0.25800
H1942       H  0.69980781  0.33446460  0.04346970     0.06800
N1943       N  0.83933547  0.23429013  0.04288318    -0.47000
H1944       H  0.67681353  0.19991059  0.04049316     0.06800
C1945       C  0.66406267  0.25650923  0.40746874     0.42500
C1946       C  0.78896093  0.17327231  0.03446314    -0.06500
Co1947     Co  0.72297865  0.21968558  0.47778491     0.73800
N1948       N  0.67404223  0.27727567  0.03762063    -0.46700
C1949       C  0.86172117  0.27015903  0.41356309     0.42800
N1950       N  0.74037841  0.18169354  0.42204556    -0.46700
Co1951     Co  0.71962864  0.29812595  0.98058543     0.73900
C1952       C  0.73982531  0.33654386  0.41735060    -0.07000
C1953       C  0.83766783  0.28621304  0.04937445    -0.06600
N1954       N  0.78164216  0.20005553  0.44557785    -0.26100
N1955       N  0.77671293  0.33944893  0.04906487    -0.46900
H1956       H  0.85844899  0.32119313  0.42859310     0.06800
C1957       C  0.68188520  0.23094803  0.42073154    -0.07000
Cl1958     Cl  0.76254269  0.26190843  0.98224045    -0.50000
C1959       C  0.66390636  0.24994228  0.05229085     0.42500
H1960       H  0.81619131  0.17184955  0.42268364     0.06700
N1961       N  0.67343324  0.28228306  0.42314331    -0.46700
C1962       C  0.64447542  0.24441284  0.08174661     0.80200
N1963       N  0.64279524  0.21435795  0.09331196    -0.78200
C1964       C  0.62531785  0.20594031  0.11948437     0.82600
N1965       N  0.61213745  0.22876677  0.13576785    -0.78100
C1966       C  0.60827845  0.25759489  0.12218835     0.82700
N1967       N  0.62477560  0.26576245  0.09448014    -0.79800
C1968       C  0.86034518  0.24824953  0.09457424     0.80200
N1969       N  0.87986735  0.26756737  0.11077748    -0.78200
C1970       C  0.89104544  0.25699879  0.13928511     0.82600
N1971       N  0.88257594  0.22780539  0.15040688    -0.78100
C1972       C  0.86852513  0.20712499  0.13197084     0.82700
N1973       N  0.85647594  0.21784002  0.10455314    -0.79800
C1974       C  0.59459191  0.24539911  0.35671879     0.80200
N1975       N  0.62154662  0.25870152  0.36773499    -0.78200
C1976       C  0.63175279  0.24957861  0.39711669     0.82600
N1977       N  0.61525567  0.22693631  0.41448065    -0.78100
C1978       C  0.58909214  0.21330584  0.40344746     0.82700
N1979       N  0.57917517  0.22231089  0.37448691    -0.79800
C1980       C  0.93199111  0.24907399  0.36748603     0.80200
N1981       N  0.90739635  0.26702926  0.37606900    -0.78200
C1982       C  0.89451739  0.26342351  0.40609925     0.82600
N1983       N  0.90616762  0.24198662  0.42650730    -0.78100
C1984       C  0.92868447  0.22280102  0.41753131     0.82700
N1985       N  0.94120393  0.22594375  0.38773319    -0.79800
N1986       N  0.98085196  0.10848960  0.46869696    -0.36700
N1987       N  0.53344389  0.09578688  0.03610586    -0.57200
N1988       N  0.98546410  0.09299193  0.08601477    -0.36700
N1989       N  0.93134108  0.09222044  0.04497870    -0.57200
C1990       C  0.50786957  0.09479068  0.47691551     0.26900
C1991       C  0.95515142  0.09216208  0.47983996     0.26900
C1992       C  0.51122470  0.09791417  0.10436170     0.26900
C1993       C  0.96119796  0.09016442  0.10763000     0.26900
C1994       C  0.55321527  0.10268829  0.50792016     0.35500
C1995       C  0.55211425  0.10328533  0.05976351     0.35500
C1996       C  0.91282949  0.09917584  0.51696304     0.35500
C1997       C  0.91516023  0.09572363  0.07214077     0.35500
C1998       C  0.49603485  0.06667053  0.49054319    -0.22000
C1999       C  0.96284097  0.06286244  0.49111876    -0.22000
C2000       C  0.50341891  0.09851605  0.13642019    -0.22000
C2001       C  0.97286026  0.08852009  0.13791574    -0.22000
C2002       C  0.58229621  0.11530677  0.51416675    -0.23000
C2003       C  0.58060622  0.11543351  0.04702548    -0.23000
C2004       C  0.88428636  0.10958706  0.52706252    -0.23000
C2005       C  0.88606859  0.10787711  0.06523351    -0.23000
C2006       C  0.53863480  0.10660633  0.47873161    -0.18400
C2007       C  0.92708211  0.10631559  0.48721272    -0.18400
C2008       C  0.92953383  0.09732818  0.10194820    -0.18400
C2009       C  0.54181477  0.10594613  0.09178636    -0.18400
H2010       H  0.50813769  0.04818955  0.50182811     0.14500
H2011       H  0.94749638  0.04536315  0.50310981     0.14500
H2012       H  0.51919316  0.10226125  0.15556257     0.14500
H2013       H  0.95942962  0.08821600  0.16007540     0.14500
H2014       H  0.59957531  0.12542245  0.49723308     0.12800
H2015       H  0.59956583  0.12620968  0.05936970     0.12800
H2016       H  0.86693576  0.12076809  0.51277104     0.12800
H2017       H  0.86814349  0.11504754  0.08169628     0.12800
H2018       H  0.98216088  0.13193121  0.46098210     0.26100
H2019       H  0.98388313  0.09797988  0.06183746     0.26100
C2020       C  0.58014477  0.16878831  0.21436887     0.42400
N2021       N  0.54457538  0.19976242  0.23233800     0.01300
C2022       C  0.93882837  0.29446631  0.15927495    -0.06600
H2023       H  0.57429919  0.31954776  0.14403256     0.06800
C2024       C  0.57438719  0.33439617  0.25013224    -0.06900
Co2025     Co  0.00282867  0.22704537  0.18566944     0.74200
N2026       N  0.53676080  0.28673601  0.15983783    -0.26100
Co2027     Co  0.00394816  0.30871758  0.19245486     0.74100
C2028       C  0.58324921  0.35748820  0.22461712     0.42500
N2029       N  0.54998728  0.27003791  0.29135170     0.00900
N2030       N  0.54164003  0.33076400  0.21286949     0.01000
N2031       N  0.94175201  0.24225451  0.15728772    -0.47000
H2032       H  0.56048492  0.17433785  0.16422052     0.06800
N2033       N  0.53331380  0.25639937  0.15628848     0.01300
N2034       N  0.97306968  0.32917103  0.22533708     0.01000
C2035       C  0.93754453  0.35450252  0.25040447     0.42600
N2036       N  0.54881891  0.23979721  0.28751138    -0.25600
C2037       C  0.95120492  0.17549498  0.20505977    -0.06500
N2038       N  0.56787917  0.18192880  0.24047203    -0.46700
N2039       N  0.94819214  0.34706652  0.22093744    -0.46900
C2040       C  0.94214876  0.15818579  0.23476563     0.42400
N2041       N  0.96673372  0.25419408  0.16991901     0.01300
N2042       N  0.98112997  0.23852364  0.29770118    -0.25600
N2043       N  0.54003331  0.20047952  0.20162114    -0.26100
N2044       N  0.98154017  0.26910095  0.30062443     0.00900
H2045       H  0.95596285  0.20073085  0.32335337     0.06800
H2046       H  0.95747363  0.33965316  0.29849365     0.06800
N2047       N  0.96612184  0.28491491  0.17156255    -0.26100
N2048       N  0.54726384  0.32171945  0.24220824    -0.25800
N2049       N  0.97634339  0.19454633  0.24410780     0.01300
C2050       C  0.57601367  0.26821710  0.12894118     0.42700
C2051       C  0.56940340  0.22623253  0.30638854    -0.07000
N2052       N  0.97890557  0.32435837  0.25565192    -0.25800
H2053       H  0.58341278  0.33275280  0.27379988     0.06800
N2054       N  0.55509308  0.24527172  0.13788936    -0.45200
H2055       H  0.57093014  0.20128781  0.31072104     0.06800
C2056       C  0.94707720  0.25170573  0.33559287     0.42500
C2057       C  0.56052704  0.18084001  0.18849952    -0.06500
Co2058     Co  0.01278797  0.21796026  0.26633852     0.73800
N2059       N  0.56970058  0.27785825  0.31381260    -0.46700
C2060       C  0.92275978  0.26560192  0.14960223     0.42800
N2061       N  0.95911091  0.17129083  0.25752934    -0.46700
Co2062     Co  0.01457822  0.29675946  0.27374666     0.73900
C2063       C  0.95822287  0.33951400  0.27286255    -0.07000
C2064       C  0.56380207  0.29629958  0.14401696    -0.06600
N2065       N  0.97249446  0.19740481  0.21330226    -0.26100
N2066       N  0.56190561  0.35299884  0.20185799    -0.46900
H2067       H  0.93105438  0.31823259  0.15795984     0.06800
C2068       C  0.96027639  0.22553559  0.31895221    -0.07000
Cl2069     Cl  0.00827966  0.26257980  0.22965764    -0.50000
C2070       C  0.58370379  0.25135860  0.32396740     0.42500
H2071       H  0.94529234  0.17034722  0.18105161     0.06700
N2072       N  0.96196429  0.27792449  0.32334320    -0.46700
C2073       C  0.73852885  0.35976868  0.09303462     0.80200
N2074       N  0.70783922  0.35370102  0.10014575    -0.78200
C2075       C  0.69084986  0.37169382  0.11898877     0.82600
N2076       N  0.70584887  0.39437753  0.13423437    -0.78100
C2077       C  0.73713843  0.40005794  0.13018523     0.82700
N2078       N  0.75368364  0.38380291  0.10785642    -0.79800
C2079       C  0.75622967  0.12532660  0.05890064     0.80200
N2080       N  0.77317074  0.11354471  0.08327506    -0.78200
C2081       C  0.76683797  0.08367715  0.09458830     0.82600
N2082       N  0.74359463  0.06671379  0.08188270    -0.78100
C2083       C  0.72516982  0.07918890  0.05991159     0.82700
N2084       N  0.73154975  0.10855347  0.04847158    -0.79800
C2085       C  0.75782762  0.13486776  0.39861987     0.80200
N2086       N  0.73433936  0.11953170  0.41560448    -0.78200
C2087       C  0.72140169  0.09273747  0.40590145     0.82600
N2088       N  0.73183584  0.08087477  0.37850129    -0.78100
C2089       C  0.75506747  0.09561005  0.36046639     0.82700
N2090       N  0.76779282  0.12340133  0.37017651    -0.79800
C2091       C  0.74297193  0.42882262  0.36446872     0.80200
N2092       N  0.76245034  0.40507788  0.37224069    -0.78200
C2093       C  0.75807885  0.38946398  0.40100174     0.82600
N2094       N  0.73502669  0.39790495  0.42098883    -0.78100
C2095       C  0.71394577  0.41840061  0.41194680     0.82700
N2096       N  0.71752793  0.43373692  0.38344142    -0.79800
N2097       N  0.60761209  0.04429564  0.01076187    -0.36700
N2098       N  0.57678114  0.48098816  0.06759278    -0.57200
N2099       N  0.57724251  0.43770139  0.01753113    -0.36700
N2100       N  0.58855187  0.48189054  0.45697684    -0.57200
C2101       C  0.58913242  0.03544749  0.03634774     0.26900
C2102       C  0.59182779  0.03966181  0.48372885     0.26900
C2103       C  0.56932112  0.41891446  0.04347057     0.26900
C2104       C  0.57712179  0.41960608  0.48967672     0.26900
C2105       C  0.58941311  0.00193137  0.08422368     0.35500
C2106       C  0.58117360  0.45545492  0.08618588     0.35500
C2107       C  0.59875700  0.00530350  0.44132942     0.35500
C2108       C  0.59475387  0.45494563  0.44363590     0.35500
C2109       C  0.55932841  0.02780494  0.02705790    -0.22000
C2110       C  0.56175413  0.02963624  0.49239351    -0.22000
C2111       C  0.56274027  0.38896221  0.03368054    -0.22000
C2112       C  0.56646434  0.38975307  0.49876714    -0.22000
C2113       C  0.60122009  0.99178987  0.11276764    -0.23000
C2114       C  0.59678049  0.46409081  0.11311468    -0.23000
C2115       C  0.61300356  0.99421106  0.41452271    -0.23000
C2116       C  0.61173156  0.46120476  0.41522022    -0.23000
C2117       C  0.60100945  0.02833007  0.06632518    -0.18400
C2118       C  0.60613269  0.03424312  0.45437799    -0.18400
C2119       C  0.59478047  0.42625315  0.46134893    -0.18400
C2120       C  0.57895618  0.42481235  0.07479635    -0.18400
H2121       H  0.53978134  0.01878148  0.04184281     0.14500
H2122       H  0.54412572  0.02137400  0.47660779     0.14500
H2123       H  0.55860628  0.36821342  0.04885529     0.14500
H2124       H  0.56589710  0.36964810  0.48404027     0.14500
H2125       H  0.61615981  0.00493803  0.12798983     0.12800
H2126       H  0.60577584  0.44912766  0.13161888     0.12800
H2127       H  0.62742660  0.00730704  0.39687042     0.12800
H2128       H  0.62245736  0.44469818  0.39995319     0.12800
H2129       H  0.63175290  0.04852636  0.01026339     0.26100
H2130       H  0.58722442  0.46013619  0.01739039     0.26100
C2131       C  0.59037960  0.38856856  0.23676191     0.80200
N2132       N  0.61748907  0.40524790  0.22936925    -0.78200
C2133       C  0.62791933  0.42701002  0.24988994     0.82600
N2134       N  0.61307717  0.42932219  0.27873444    -0.78100
C2135       C  0.58621816  0.41263183  0.28564582     0.82700
N2136       N  0.57449990  0.39401228  0.26399817    -0.79800
C2137       C  0.89173528  0.08525686  0.23080101     0.80200
N2138       N  0.90376102  0.11475528  0.22315416    -0.78200
C2139       C  0.92849059  0.12613375  0.23965880     0.82600
N2140       N  0.93844930  0.10931724  0.26510822    -0.78100
C2141       C  0.92650854  0.08039441  0.27259883     0.82700
N2142       N  0.90401493  0.06843721  0.25485993    -0.79800
C2143       C  0.59162195  0.13647112  0.21934984     0.80200
N2144       N  0.57507038  0.12032406  0.24258687    -0.78200
C2145       C  0.58688088  0.09602426  0.25857712     0.82600
N2146       N  0.61533513  0.08604240  0.25011244    -0.78100
C2147       C  0.63242172  0.10009823  0.22576626     0.82700
N2148       N  0.62130399  0.12688795  0.21115804    -0.79800
C2149       C  0.86633069  0.40543663  0.26069714     0.80200
N2150       N  0.89009722  0.39062529  0.24463553    -0.78200
C2151       C  0.90891982  0.37081512  0.26193430     0.82600
N2152       N  0.90492379  0.36851190  0.29398600    -0.78100
C2153       C  0.88257767  0.38352844  0.30964555     0.82700
N2154       N  0.86326351  0.40104802  0.29265126    -0.79800
N2155       N  0.92543141  0.49480716  0.42854947    -0.36700
N2156       N  0.98417260  0.04589816  0.40871505    -0.57200
N2157       N  0.52971001  0.49864390  0.40216631    -0.36700
N2158       N  0.97379082  0.44895108  0.41826803    -0.57200
C2159       C  0.91649216  0.02218149  0.42037431     0.26900
C2160       C  0.90732916  0.46848185  0.42712511     0.26900
C2161       C  0.54554569  0.02471878  0.37860327     0.26900
C2162       C  0.54086079  0.47218428  0.39019833     0.26900
C2163       C  0.95820386  0.06270484  0.41092478     0.35500
C2164       C  0.51266207  0.06759157  0.39739547     0.35500
C2165       C  0.95014289  0.43152110  0.43237381     0.35500
C2166       C  0.50663469  0.43313164  0.42073346     0.35500
C2167       C  0.88600686  0.01162105  0.41711903    -0.22000
C2168       C  0.87783717  0.47608876  0.41704137    -0.22000
C2169       C  0.56374648  0.01288704  0.35439550    -0.22000
C2170       C  0.56143700  0.47990505  0.36487036    -0.22000
C2171       C  0.96556637  0.09364438  0.40225998    -0.23000
C2172       C  0.50253914  0.09799286  0.39499726    -0.23000
C2173       C  0.96004749  0.40137987  0.43822014    -0.23000
C2174       C  0.49942413  0.40313617  0.43249684    -0.23000
C2175       C  0.92899816  0.04933528  0.40453532    -0.18400
C2176       C  0.91889815  0.43790902  0.42590339    -0.18400
C2177       C  0.53163670  0.44097517  0.39944443    -0.18400
C2178       C  0.53823018  0.05672698  0.37981924    -0.18400
H2179       H  0.86734392  0.02421648  0.40624081     0.14500
H2180       H  0.85884234  0.46000928  0.41196230     0.14500
H2181       H  0.57564003  0.02505302  0.33444650     0.14500
H2182       H  0.57455955  0.46491806  0.35002695     0.14500
H2183       H  0.94936546  0.11183190  0.39705604     0.12800
H2184       H  0.51465846  0.11802673  0.38342574     0.12800
H2185       H  0.94560659  0.38125962  0.44607813     0.12800
H2186       H  0.51404488  0.38303758  0.43117530     0.12800
H2187       H  0.94906201  0.49607510  0.43347554     0.26100
H2188       H  0.51398008  0.49993004  0.42130721     0.26100
C2189       C  0.65559479  0.44767257  0.24242194     0.42400
N2190       N  0.68950644  0.48464723  0.24897656     0.01300
C2191       C  0.79702254  0.05514645  0.13953537    -0.06600
H2192       H  0.80210068  0.43089747  0.15177493     0.06800
C2193       C  0.83348877  0.45321284  0.27146883    -0.06900
Co2194     Co  0.72124950  0.01165586  0.18850662     0.74200
N2195       N  0.77341491  0.46701479  0.17125990    -0.26100
Co2196     Co  0.80274683  0.00139356  0.19207857     0.74100
C2197       C  0.84750206  0.43242713  0.24890686     0.42500
N2198       N  0.76643061  0.48260378  0.30127927     0.00900
N2199       N  0.82175813  0.46823151  0.22414578     0.01000
N2200       N  0.74589630  0.06421489  0.14440962    -0.47000
H2201       H  0.66503748  0.44976256  0.18820753     0.06800
N2202       N  0.74298167  0.47151593  0.17072821     0.01300
N2203       N  0.82876040  0.03612662  0.21473621     0.01000
C2204       C  0.85915896  0.07569184  0.22491840     0.42600
N2205       N  0.73597378  0.48562892  0.29958157    -0.25600
C2206       C  0.67806386  0.07099523  0.19513742    -0.06500
N2207       N  0.66864815  0.46574507  0.26418066    -0.46700
N2208       N  0.85106258  0.05555482  0.20225809    -0.46900
C2209       C  0.66491204  0.08832183  0.22191764     0.42400
N2210       N  0.75356502  0.04139160  0.16405939     0.01300
N2211       N  0.74203652  0.05147553  0.29173017    -0.25600
N2212       N  0.69075883  0.48074928  0.21813104    -0.26100
N2213       N  0.77225473  0.04859386  0.29512975     0.00900
H2214       H  0.70772389  0.07874589  0.31500138     0.06800
H2215       H  0.84097557  0.07422076  0.27677801     0.06800
N2216       N  0.78368711  0.03585977  0.16238355    -0.26100
N2217       N  0.81846631  0.47430713  0.25448817    -0.25800
N2218       N  0.69716794  0.05309732  0.23875621     0.01300
C2219       C  0.74857568  0.42878492  0.14562144     0.42700
C2220       C  0.72165679  0.46487959  0.32000990    -0.07000
N2221       N  0.82293683  0.04091393  0.24499533    -0.25800
H2222       H  0.83540342  0.45320427  0.29696629     0.06800
N2223       N  0.72780277  0.44939252  0.15605193    -0.47000
H2224       H  0.69670372  0.46241185  0.32451297     0.06800
C2225       C  0.75923294  0.08462579  0.32758995     0.42500
C2226       C  0.67006850  0.45769069  0.21157561    -0.06500
Co2227     Co  0.71521017  0.01842540  0.26892688     0.73800
N2228       N  0.77401450  0.46050724  0.32242651    -0.46700
C2229       C  0.77178476  0.07442688  0.12766445     0.42800
N2230       N  0.67806554  0.07501777  0.24779531    -0.46700
Co2231     Co  0.79606168  0.51265464  0.27317761     0.73900
C2232       C  0.83968562  0.06591057  0.25296266    -0.07000
C2233       C  0.77931513  0.44045596  0.15579118    -0.06600
N2234       N  0.69779284  0.05000134  0.20785803    -0.26100
N2235       N  0.83944113  0.44328203  0.21949551    -0.46900
H2236       H  0.82117101  0.05501886  0.13153486     0.06800
C2237       C  0.73202509  0.07378668  0.31044927    -0.07000
Cl2238     Cl  0.75835881  0.01042940  0.23092883    -0.50000
C2239       C  0.74675588  0.44788244  0.33475917     0.42500
H2240       H  0.67137705  0.07205352  0.17062199     0.06700
N2241       N  0.78319485  0.06702464  0.31732866    -0.46700
C2242       C  0.89056734  0.39519195  0.34062625    -0.05500
C2243       C  0.87808834  0.38257441  0.36974689    -0.33000
C2244       C  0.88686543  0.39582007  0.39840749     0.36300
C2245       C  0.90821514  0.42152129  0.39754822    -0.05900
C2246       C  0.91989475  0.43396245  0.36822081    -0.32900
C2247       C  0.91111111  0.42131345  0.34015801     0.36200
H2248       H  0.86161794  0.36288897  0.37021336     0.16600
O2249       O  0.87387921  0.38430678  0.42669753    -0.60400
H2250       H  0.93581758  0.45412204  0.36711896     0.16600
O2251       O  0.92292290  0.43465109  0.31202618    -0.60500
H2252       H  0.90885655  0.45195370  0.30680216     0.43600
H2253       H  0.88941756  0.36988918  0.43541797     0.43500
C2254       C  0.54951393  0.07624724  0.35191402    -0.05500
C2255       C  0.52944627  0.07807270  0.32622054    -0.33000
C2256       C  0.54132664  0.08414694  0.29547287     0.36300
C2257       C  0.57370051  0.08819197  0.29023531    -0.05900
C2258       C  0.59348200  0.08916729  0.31615763    -0.32900
C2259       C  0.58152611  0.08336443  0.34700511     0.36200
H2260       H  0.50483584  0.07209323  0.32973613     0.16600
O2261       O  0.52151294  0.08377575  0.27052200    -0.60400
H2262       H  0.61833653  0.09390727  0.31245168     0.16600
O2263       O  0.60147107  0.08168222  0.37177575    -0.60500
H2264       H  0.61158618  0.06126444  0.37026871     0.43600
H2265       H  0.51015396  0.10356482  0.27138411     0.43500
C2266       C  0.92271054  0.05195835  0.37019167    -0.05500
C2267       C  0.94257314  0.03651295  0.34899782    -0.33000
C2268       C  0.94398209  0.04501453  0.31669085     0.36300
C2269       C  0.92589234  0.06950575  0.30566122    -0.05900
C2270       C  0.90405074  0.08279216  0.32611106    -0.32900
C2271       C  0.90197675  0.07372190  0.35814408     0.36200
H2272       H  0.95843848  0.01926354  0.35788794     0.16600
O2273       O  0.96427243  0.03070348  0.29659086    -0.60400
H2274       H  0.88868957  0.10051687  0.31715229     0.16600
O2275       O  0.88043734  0.08702813  0.37752085    -0.60500
H2276       H  0.86066566  0.07494394  0.37483199     0.43600
H2277       H  0.95371075  0.01058339  0.29192080     0.43500
C2278       C  0.57050973  0.41166799  0.31700141    -0.05500
C2279       C  0.53816215  0.41527582  0.31868684    -0.33000
C2280       C  0.52284817  0.41823498  0.34794027     0.36300
C2281       C  0.54008012  0.41767370  0.37584272    -0.05900
C2282       C  0.57081120  0.40755726  0.37445704    -0.32900
C2283       C  0.58638366  0.40486406  0.34503566     0.36200
H2284       H  0.52519501  0.41850316  0.29720889     0.16600
O2285       O  0.49239518  0.42707262  0.34861551    -0.60400
H2286       H  0.58367964  0.40614749  0.39581581     0.16600
O2287       O  0.61735007  0.39773182  0.34392926    -0.60500
H2288       H  0.61755772  0.37467308  0.34682632     0.43600
H2289       H  0.49317873  0.44974384  0.34279470     0.43500
C2290       C  0.62565865  0.41192353  0.45963798    -0.05500
C2291       C  0.63182745  0.39200046  0.43493401    -0.33000
C2292       C  0.66077701  0.39439429  0.41869352     0.36300
C2293       C  0.68388124  0.41562782  0.42860377    -0.05900
C2294       C  0.67994952  0.42998249  0.45733866    -0.32900
C2295       C  0.65086231  0.42855291  0.47285455     0.36200
H2296       H  0.61333768  0.37739578  0.42600364     0.16600
O2297       O  0.66574194  0.37753410  0.39212017    -0.60400
H2298       H  0.69877319  0.44404485  0.46658792     0.16600
O2299       O  0.64633957  0.44665118  0.49853184    -0.60500
H2300       H  0.64044814  0.46737556  0.48995594     0.43600
H2301       H  0.66438311  0.35528454  0.39952918     0.43500
C2302       C  0.69294873  0.07942303  0.42204691    -0.05500
C2303       C  0.69252310  0.04844031  0.43332464    -0.33000
C2304       C  0.66482780  0.03401552  0.44548955     0.36300
C2305       C  0.63663052  0.05034875  0.44538996    -0.05900
C2306       C  0.63757962  0.08211433  0.43614718    -0.32900
C2307       C  0.66557741  0.09677283  0.42458889     0.36200
H2308       H  0.71369146  0.03523666  0.43237583     0.16600
O2309       O  0.66555485  0.00398344  0.45767617    -0.60400
H2310       H  0.61642148  0.09524395  0.43689284     0.16600
O2311       O  0.66550906  0.12739685  0.41389303    -0.60500
H2312       H  0.66813348  0.13975826  0.43305448     0.43600
H2313       H  0.67221746  0.99121943  0.43973482     0.43500
C2314       C  0.69326018  0.06628720  0.05958314    -0.05500
C2315       C  0.68825962  0.03415718  0.05634550    -0.33000
C2316       C  0.65842185  0.02058638  0.06152137     0.36300
C2317       C  0.63343114  0.03922796  0.07085452    -0.05900
C2318       C  0.63895019  0.07073403  0.07609668    -0.32900
C2319       C  0.66838204  0.08457211  0.06995990     0.36200
H2320       H  0.70746143  0.01969502  0.04953341     0.16600
O2321       O  0.65329287  0.98982035  0.05488353    -0.60400
H2322       H  0.62001803  0.08469065  0.08398660     0.16600
O2323       O  0.67260672  0.11591386  0.07455696    -0.60500
H2324       H  0.68329638  0.11724764  0.09498632     0.43600
H2325       H  0.66027859  0.97772927  0.07374134     0.43500
C2326       C  0.65938263  0.37846187  0.10805063    -0.05500
C2327       C  0.63250241  0.37744302  0.12815036    -0.33000
C2328       C  0.60426386  0.38974295  0.11723942     0.36300
C2329       C  0.60340134  0.40332969  0.08628599    -0.05900
C2330       C  0.62980745  0.40201273  0.06623471    -0.32900
C2331       C  0.65749122  0.39039043  0.07667157     0.36200
H2332       H  0.63370357  0.36833627  0.15236384     0.16600
O2333       O  0.57810351  0.38922804  0.13684474    -0.60400
H2334       H  0.62982868  0.41237678  0.04262758     0.16600
O2335       O  0.68377329  0.39460232  0.05724859    -0.60500
H2336       H  0.67885045  0.38470933  0.03706185     0.43600
H2337       H  0.58367323  0.40183467  0.15516225     0.43500
C2338       C  0.92236358  0.13730013  0.47208074    -0.05500
C2339       C  0.93561627  0.16400433  0.48535887    -0.33000
C2340       C  0.93928438  0.19200402  0.46727765     0.36300
C2341       C  0.93005898  0.19316821  0.43560388    -0.05900
C2342       C  0.91533795  0.16690254  0.42311498    -0.32900
C2343       C  0.91097251  0.13931175  0.44150610     0.36200
H2344       H  0.94461706  0.16257331  0.50907514     0.16600
O2345       O  0.95197174  0.21796816  0.48056741    -0.60400
H2346       H  0.90633542  0.16812841  0.39938872     0.16600
O2347       O  0.89609862  0.11403348  0.42934791    -0.60500
H2348       H  0.87402183  0.11511834  0.43686677     0.43600
H2349       H  0.97490386  0.21600368  0.47799150     0.43500
C2350       C  0.54920510  0.13435120  0.45813705    -0.05500
C2351       C  0.56174739  0.13048050  0.42756930    -0.33000
C2352       C  0.57360983  0.15629355  0.40895945     0.36300
C2353       C  0.57391167  0.18637814  0.42131133    -0.05900
C2354       C  0.56153404  0.19026965  0.45189564    -0.32900
C2355       C  0.54868116  0.16472879  0.46999923     0.36200
H2356       H  0.56305179  0.10731919  0.41846355     0.16600
O2357       O  0.58577088  0.15179119  0.37913120    -0.60400
H2358       H  0.56185636  0.21321392  0.46179168     0.16600
O2359       O  0.53682277  0.16942802  0.49990100    -0.60500
H2360       H  0.51493837  0.17547272  0.49692816     0.43600
H2361       H  0.60827518  0.14819123  0.38205170     0.43500
C2362       C  0.91814628  0.12352606  0.12042700    -0.05500
C2363       C  0.93098724  0.15262113  0.11013101    -0.33000
C2364       C  0.91447104  0.17946736  0.11401868     0.36300
C2365       C  0.88514699  0.17784306  0.13015340    -0.05900
C2366       C  0.87372469  0.14928649  0.14399229    -0.32900
C2367       C  0.89013778  0.12186406  0.13885599     0.36200
H2368       H  0.95219256  0.15412306  0.09535990     0.16600
O2369       O  0.92554855  0.20688538  0.09910874    -0.60400
H2370       H  0.85164400  0.14804161  0.15721368     0.16600
O2371       O  0.87778228  0.09356774  0.14991903    -0.60500
H2372       H  0.86741072  0.08450025  0.13161479     0.43600
H2373       H  0.94735554  0.21009131  0.10584720     0.43500
C2374       C  0.60427000  0.17850846  0.11651638    -0.05500
C2375       C  0.57594936  0.18453362  0.10194470    -0.33000
C2376       C  0.55333457  0.16121339  0.09905044     0.36300
C2377       C  0.55959446  0.13029634  0.10834717    -0.05900
C2378       C  0.58744101  0.12389966  0.12397625    -0.32900
C2379       C  0.60995743  0.14812621  0.12826271     0.36200
H2380       H  0.57135205  0.20770088  0.09237780     0.16600
O2381       O  0.52605158  0.16827388  0.08444918    -0.60400
H2382       H  0.59235767  0.10007464  0.13117083     0.16600
O2383       O  0.63703440  0.14233580  0.14377975    -0.60500
H2384       H  0.64493799  0.12250687  0.13584428     0.43600
H2385       H  0.53116018  0.16846048  0.06138661     0.43500
C2386       C  0.75717662  0.16065881  0.54891392     0.42400
N2387       N  0.74646184  0.19539659  0.51313400     0.01300
C2388       C  0.85236956  0.29855845  0.93331004    -0.06600
H2389       H  0.83813596  0.31167902  0.55696402     0.06800
C2390       C  0.72350704  0.33622410  0.53906283    -0.06900
Co2391     Co  0.80469598  0.22465177  0.98143808     0.74200
N2392       N  0.82155179  0.28033161  0.52150542    -0.26100
Co2393     Co  0.79959178  0.30656736  0.48631773     0.74100
C2394       C  0.74718204  0.34852976  0.55983906     0.42500
N2395       N  0.69153189  0.27048520  0.51285093     0.00900
N2396       N  0.76909602  0.32620470  0.52006597     0.01000
N2397       N  0.84782180  0.24711355  0.92660545    -0.47000
H2398       H  0.81006492  0.17054182  0.54161773     0.06800
N2399       N  0.82288736  0.24977357  0.51894909     0.01300
N2400       N  0.77814127  0.33046025  0.95240659     0.01000
C2401       C  0.76785353  0.36022810  0.91149808     0.42600
N2402       N  0.69452796  0.24000245  0.51172521    -0.25600
C2403       C  0.79274174  0.17822401  0.92443420    -0.06500
N2404       N  0.73376578  0.17365966  0.53284510    -0.46700
N2405       N  0.79032980  0.35219902  0.93198552    -0.46900
C2406       C  0.76422759  0.16571334  0.90954567     0.42400
N2407       N  0.82819909  0.25560017  0.94902789     0.01300
N2408       N  0.70094292  0.24325889  0.94412076    -0.25600
N2409       N  0.77711676  0.19700083  0.51457058    -0.26100
N2410       N  0.69732008  0.27357455  0.94438489     0.00900
H2411       H  0.67778970  0.20615259  0.92057125     0.06800
H2412       H  0.71726809  0.34059301  0.91253216     0.06800
N2413       N  0.82986687  0.28590230  0.95330227    -0.26100
N2414       N  0.73877747  0.32295611  0.51555736    -0.25800
N2415       N  0.75221555  0.20005300  0.94380109     0.01300
C2416       C  0.84613115  0.25873259  0.56252276     0.42700
C2417       C  0.67688683  0.22594258  0.53491333    -0.07000
N2418       N  0.74834535  0.32430146  0.94765538    -0.25800
H2419       H  0.69836133  0.33631990  0.54185726     0.06800
N2420       N  0.83699426  0.23623457  0.54298315    -0.47000
H2421       H  0.67477352  0.20099086  0.53974375     0.06800
C2422       C  0.66409159  0.25668054  0.91045845     0.42500
C2423       C  0.78617360  0.17606173  0.53671516    -0.06500
Co2424     Co  0.72482571  0.21918397  0.97859137     0.73800
N2425       N  0.67245633  0.27836568  0.53668318    -0.46700
C2426       C  0.86451549  0.27261231  0.91520710     0.42800
N2427       N  0.74064627  0.18067252  0.92342264    -0.46700
Co2428     Co  0.71782697  0.29862997  0.47889234     0.73900
C2429       C  0.74072233  0.33970034  0.92113818    -0.07000
C2430       C  0.83582939  0.28833574  0.54832336    -0.06600
N2431       N  0.78286370  0.19974056  0.94499508    -0.26100
N2432       N  0.77532743  0.34134505  0.54656006    -0.46900
H2433       H  0.86012947  0.32278933  0.93229778     0.06800
C2434       C  0.68193919  0.23092921  0.92317617    -0.07000
Cl2435     Cl  0.76064716  0.26252754  0.48143280    -0.50000
C2436       C  0.66224195  0.25110275  0.55154975     0.42500
H2437       H  0.81636561  0.17015926  0.92231970     0.06700
N2438       N  0.67433727  0.28244196  0.92561781    -0.46700
C2439       C  0.64350103  0.24567240  0.58158299     0.80200
N2440       N  0.64157493  0.21555411  0.59301502    -0.78200
C2441       C  0.62481854  0.20728690  0.61972439     0.82600
N2442       N  0.61233837  0.23019053  0.63641481    -0.78100
C2443       C  0.60869853  0.25920481  0.62319300     0.82700
N2444       N  0.62461119  0.26728865  0.59510245    -0.79800
C2445       C  0.85817486  0.25052359  0.59419148     0.80200
N2446       N  0.87899489  0.26895831  0.60988975    -0.78200
C2447       C  0.89070410  0.25759262  0.63789285     0.82600
N2448       N  0.88191974  0.22836667  0.64868480    -0.78100
C2449       C  0.86615785  0.20855126  0.63064777     0.82700
N2450       N  0.85332726  0.22021225  0.60409144    -0.79800
C2451       C  0.59476752  0.24644519  0.85959027     0.80200
N2452       N  0.62190969  0.25923255  0.87064329    -0.78200
C2453       C  0.63160526  0.25041203  0.90028588     0.82600
N2454       N  0.61438095  0.22846729  0.91793878    -0.78100
C2455       C  0.58781183  0.21552411  0.90694552     0.82700
N2456       N  0.57849467  0.22421659  0.87766827    -0.79800
C2457       C  0.93462018  0.25197033  0.86955681     0.80200
N2458       N  0.91002552  0.26995334  0.87790854    -0.78200
C2459       C  0.89764526  0.26732460  0.90815874     0.82600
N2460       N  0.90999197  0.24700143  0.92919105    -0.78100
C2461       C  0.93231212  0.22746643  0.92050064     0.82700
N2462       N  0.94424925  0.22951426  0.89037717    -0.79800
N2463       N  0.98048589  0.11447869  0.97085388    -0.36700
N2464       N  0.53698194  0.09476043  0.53525535    -0.57200
N2465       N  0.98234075  0.09329414  0.58498421    -0.36700
N2466       N  0.92963658  0.08930689  0.54185035    -0.57200
C2467       C  0.50402522  0.09665149  0.97813765     0.26900
C2468       C  0.95492374  0.09814717  0.98238621     0.26900
C2469       C  0.51440461  0.09563689  0.60260779     0.26900
C2470       C  0.95722149  0.09084902  0.60556918     0.26900
C2471       C  0.54941918  0.10422493  0.00875968     0.35500
C2472       C  0.55505036  0.10377011  0.55891242     0.35500
C2473       C  0.91397007  0.10395950  0.02135633     0.35500
C2474       C  0.91261888  0.09455630  0.56809804     0.35500
C2475       C  0.49358610  0.06755216  0.99038923    -0.22000
C2476       C  0.96240546  0.06812782  0.99150182    -0.22000
C2477       C  0.50692875  0.09033246  0.63450960    -0.22000
C2478       C  0.96756551  0.08981002  0.63638096    -0.22000
C2479       C  0.57887403  0.11583130  0.01478512    -0.23000
C2480       C  0.58325872  0.11657877  0.54639439    -0.23000
C2481       C  0.88581659  0.11386247  0.03305952    -0.23000
C2482       C  0.88372690  0.10603434  0.55951783    -0.23000
C2483       C  0.53444781  0.10903903  0.98001200    -0.18400
C2484       C  0.92734342  0.11230085  0.99147923    -0.18400
C2485       C  0.92579557  0.09752784  0.59829935    -0.18400
C2486       C  0.54469771  0.10533884  0.59096969    -0.18400
H2487       H  0.50668281  0.04941424  0.00097465     0.14500
H2488       H  0.94715759  0.05019631  0.00291474     0.14500
H2489       H  0.52301613  0.08979510  0.65379686     0.14500
H2490       H  0.95320772  0.08976305  0.65793600     0.14500
H2491       H  0.59601150  0.12625592  0.99788561     0.12800
H2492       H  0.60176047  0.12802872  0.55885814     0.12800
H2493       H  0.86811813  0.12603967  0.02012471     0.12800
H2494       H  0.86537095  0.11422765  0.57490341     0.12800
H2495       H  0.98213428  0.13822691  0.96444160     0.26100
H2496       H  0.98168280  0.09773149  0.56062840     0.26100
C2497       C  0.57986453  0.17007968  0.71742873     0.42400
N2498       N  0.54489810  0.20202188  0.73444171     0.01300
C2499       C  0.93869498  0.29480048  0.65790110    -0.06600
H2500       H  0.57560962  0.32145103  0.64615765     0.06800
C2501       C  0.57678006  0.33222979  0.75239732    -0.06900
Co2502     Co  0.00207173  0.22716755  0.68556739     0.74200
N2503       N  0.53791549  0.28887921  0.66222338    -0.26100
Co2504     Co  0.00360841  0.30905858  0.69149024     0.74100
C2505       C  0.58671225  0.35511312  0.72701395     0.42500
N2506       N  0.55048402  0.27094039  0.79429964     0.00900
N2507       N  0.54310419  0.33157095  0.71592399     0.01000
N2508       N  0.94121840  0.24252134  0.65647745    -0.47000
H2509       H  0.56040710  0.17469201  0.66703322     0.06800
N2510       N  0.53422195  0.25859440  0.65858359     0.01300
N2511       N  0.97270248  0.32957616  0.72451013     0.01000
C2512       C  0.93725618  0.35435136  0.75033054     0.42600
N2513       N  0.54939256  0.24077540  0.79021054    -0.25600
C2514       C  0.94895606  0.17725176  0.70623653    -0.06500
N2515       N  0.56802204  0.18427580  0.74298319    -0.46700
N2516       N  0.94791548  0.34775174  0.72056473    -0.46900
C2517       C  0.93902154  0.16143226  0.73651996     0.42400
N2518       N  0.96616335  0.25439609  0.66929825     0.01300
N2519       N  0.98116389  0.23980558  0.79815693    -0.25600
N2520       N  0.54031500  0.20222448  0.70374740    -0.26100
N2521       N  0.98188752  0.27040280  0.80060834     0.00900
H2522       H  0.95704440  0.20248706  0.82560807     0.06800
H2523       H  0.95743314  0.33863660  0.79796320     0.06800
N2524       N  0.96576589  0.28515711  0.67061910    -0.26100
N2525       N  0.54842967  0.32202454  0.74517553    -0.25800
N2526       N  0.97504720  0.19630478  0.74461927     0.01300
C2527       C  0.57671301  0.27016380  0.63080211     0.42700
C2528       C  0.57008752  0.22716124  0.80896565    -0.07000
N2529       N  0.97864717  0.32435334  0.75474676    -0.25800
H2530       H  0.58649446  0.32929173  0.77565945     0.06800
N2531       N  0.55569624  0.24736927  0.63990416    -0.45200
H2532       H  0.57175719  0.20220726  0.81311062     0.06800
C2533       C  0.94885162  0.25373588  0.83726033     0.42500
C2534       C  0.56044140  0.18180396  0.69115393    -0.06500
Co2535     Co  0.01211706  0.21886356  0.76643019     0.73800
N2536       N  0.57022380  0.27871838  0.81670815    -0.46700
C2537       C  0.92247665  0.26596713  0.64834420     0.42800
N2538       N  0.95656421  0.17453237  0.75880001    -0.46700
Co2539     Co  0.01457051  0.29740558  0.77279800     0.73900
C2540       C  0.95789340  0.33884872  0.77232761    -0.07000
C2541       C  0.56492043  0.29828849  0.64618919    -0.06600
N2542       N  0.97130414  0.19842148  0.71376189    -0.26100
N2543       N  0.56493333  0.35201188  0.70448437    -0.46900
H2544       H  0.93116407  0.31863883  0.65618447     0.06800
C2545       C  0.96114735  0.22721483  0.82048983    -0.07000
Cl2546     Cl  0.00786151  0.26309345  0.72914458    -0.50000
C2547       C  0.58434244  0.25227077  0.82669712     0.42500
H2548       H  0.94243018  0.17189460  0.68244875     0.06700
N2549       N  0.96336531  0.27968192  0.82398232    -0.46700
C2550       C  0.73793566  0.36185180  0.59112913     0.80200
N2551       N  0.70742621  0.35557004  0.59878815    -0.78200
C2552       C  0.69064469  0.37338883  0.61799299     0.82600
N2553       N  0.70582071  0.39593560  0.63332239    -0.78100
C2554       C  0.73711658  0.40163111  0.62905594     0.82700
N2555       N  0.75334404  0.38570738  0.60613508    -0.79800
C2556       C  0.75360437  0.12877242  0.56225721     0.80200
N2557       N  0.77071707  0.11787277  0.58689733    -0.78200
C2558       C  0.76525954  0.08794596  0.59842964     0.82600
N2559       N  0.74276742  0.07003984  0.58567886    -0.78100
C2560       C  0.72410831  0.08167248  0.56351598     0.82700
N2561       N  0.72955982  0.11110442  0.55185323    -0.79800
C2562       C  0.75690611  0.13360538  0.89937264     0.80200
N2563       N  0.73321818  0.11813920  0.91613370    -0.78200
C2564       C  0.72008200  0.09152006  0.90593434     0.82600
N2565       N  0.73045098  0.08022161  0.87826842    -0.78100
C2566       C  0.75363993  0.09523827  0.86046251     0.82700
N2567       N  0.76666837  0.12261997  0.87069676    -0.79800
C2568       C  0.74498018  0.43297830  0.87001354     0.80200
N2569       N  0.76390496  0.40864840  0.87733232    -0.78200
C2570       C  0.75993233  0.39308849  0.90618417     0.82600
N2571       N  0.73752848  0.40200192  0.92672878    -0.78100
C2572       C  0.71699041  0.42345232  0.91838727     0.82700
N2573       N  0.72040362  0.43876012  0.88979690    -0.79800
N2574       N  0.60825626  0.04489380  0.50966842    -0.36700
N2575       N  0.57611500  0.48025629  0.56562474    -0.57200
N2576       N  0.57797687  0.43742294  0.51544298    -0.36700
N2577       N  0.58630032  0.48205490  0.95927623    -0.57200
C2578       C  0.58950106  0.03550084  0.53481427     0.26900
C2579       C  0.59061672  0.03922309  0.98520306     0.26900
C2580       C  0.56888570  0.41879613  0.54118375     0.26900
C2581       C  0.57733090  0.41957244  0.99197551     0.26900
C2582       C  0.58897179  0.00241676  0.58287418     0.35500
C2583       C  0.58021328  0.45473324  0.58429582     0.35500
C2584       C  0.59483051  0.00453210  0.94276429     0.35500
C2585       C  0.59239524  0.45523762  0.94561372     0.35500
C2586       C  0.56010442  0.02718077  0.52484939    -0.22000
C2587       C  0.56045102  0.03003440  0.99457730    -0.22000
C2588       C  0.56099520  0.38927084  0.53112884    -0.22000
C2589       C  0.56826733  0.38933548  0.00134727    -0.22000
C2590       C  0.60046935  0.99232385  0.61153271    -0.23000
C2591       C  0.59552486  0.46331385  0.61142117    -0.23000
C2592       C  0.60629478  0.99332311  0.91477418    -0.23000
C2593       C  0.60805371  0.46178893  0.91654248    -0.23000
C2594       C  0.60082955  0.02867180  0.56505905    -0.18400
C2595       C  0.60424859  0.03300895  0.95564241    -0.18400
C2596       C  0.59447949  0.42690651  0.96348574    -0.18400
C2597       C  0.57810781  0.42418206  0.57275482    -0.18400
H2598       H  0.54040209  0.01784585  0.53922038     0.14500
H2599       H  0.54250044  0.02170325  0.97920656     0.14500
H2600       H  0.55569442  0.36861055  0.54611502     0.14500
H2601       H  0.56881688  0.36907765  0.98684462     0.14500
H2602       H  0.61519826  0.00549556  0.62693611     0.12800
H2603       H  0.60431510  0.44838418  0.63005151     0.12800
H2604       H  0.62007164  0.00598777  0.89634035     0.12800
H2605       H  0.61872940  0.44551284  0.90097380     0.12800
H2606       H  0.63227991  0.04976282  0.50975361     0.26100
H2607       H  0.58915443  0.45931507  0.51563510     0.26100
C2608       C  0.59411282  0.38573236  0.73987401     0.80200
N2609       N  0.62067876  0.40311192  0.73222758    -0.78200
C2610       C  0.63020373  0.42558122  0.75239064     0.82600
N2611       N  0.61493188  0.42819318  0.78100757    -0.78100
C2612       C  0.58860504  0.41071002  0.78807267     0.82700
N2613       N  0.57789042  0.39114587  0.76686802    -0.79800
C2614       C  0.88879073  0.08812382  0.73468569     0.80200
N2615       N  0.90081783  0.11737001  0.72583530    -0.78200
C2616       C  0.92467548  0.12992299  0.74280464     0.82600
N2617       N  0.93377264  0.11460029  0.76952314    -0.78100
C2618       C  0.92196877  0.08593744  0.77797936     0.82700
N2619       N  0.90029065  0.07276939  0.76015185    -0.79800
C2620       C  0.59081094  0.13783696  0.72415940     0.80200
N2621       N  0.57531307  0.12385150  0.74946078    -0.78200
C2622       C  0.58754489  0.10073324  0.76686257     0.82600
N2623       N  0.61543566  0.08966016  0.75785167    -0.78100
C2624       C  0.63124832  0.10133928  0.73138669     0.82700
N2625       N  0.61969126  0.12694981  0.71511696    -0.79800
C2626       C  0.86939875  0.40922501  0.76290929     0.80200
N2627       N  0.89089040  0.39225208  0.74593259    -0.78200
C2628       C  0.91094323  0.37340191  0.76286270     0.82600
N2629       N  0.90994701  0.37360244  0.79507514    -0.78100
C2630       C  0.88945070  0.39025590  0.81134516     0.82700
N2631       N  0.86949252  0.40752590  0.79503339    -0.79800
N2632       N  0.93266690  0.49798231  0.93108568    -0.36700
N2633       N  0.98426051  0.04787366  0.91053552    -0.57200
N2634       N  0.52953053  0.50024238  0.90028722    -0.36700
N2635       N  0.98111721  0.45201735  0.92272076    -0.57200
C2636       C  0.91685222  0.02439046  0.92407691     0.26900
C2637       C  0.91447418  0.47157655  0.93141779     0.26900
C2638       C  0.54067161  0.02266625  0.88003682     0.26900
C2639       C  0.53943406  0.47337166  0.88814672     0.26900
C2640       C  0.95861976  0.06498934  0.91427082     0.35500
C2641       C  0.50792680  0.06378326  0.90164810     0.35500
C2642       C  0.95719299  0.43434159  0.93590580     0.35500
C2643       C  0.50468275  0.43568569  0.91971326     0.35500
C2644       C  0.88620930  0.01401702  0.92141019    -0.22000
C2645       C  0.88449218  0.47884346  0.92260947    -0.22000
C2646       C  0.55806902  0.01230398  0.85449205    -0.22000
C2647       C  0.55988397  0.48035352  0.86253277    -0.22000
C2648       C  0.96601025  0.09595254  0.90565684    -0.23000
C2649       C  0.49788224  0.09418439  0.90179234    -0.23000
C2650       C  0.96682958  0.40401666  0.94105121    -0.23000
C2651       C  0.49657253  0.40616916  0.93217467    -0.23000
C2652       C  0.92887710  0.05215126  0.90896521    -0.18400
C2653       C  0.92612078  0.44111306  0.92928608    -0.18400
C2654       C  0.52953376  0.44251191  0.89796581    -0.18400
C2655       C  0.53429995  0.05453727  0.88417724    -0.18400
H2656       H  0.86719706  0.02712325  0.91187331     0.14500
H2657       H  0.86535853  0.46251227  0.91870726     0.14500
H2658       H  0.56969444  0.02568910  0.83515787     0.14500
H2659       H  0.57227650  0.46487811  0.84762149     0.14500
H2660       H  0.94976042  0.11449929  0.90211417     0.12800
H2661       H  0.51064470  0.11512909  0.89318905     0.12800
H2662       H  0.95221144  0.38378742  0.94811246     0.12800
H2663       H  0.51003919  0.38530454  0.93045664     0.12800
H2664       H  0.95656024  0.49943022  0.93449747     0.26100
H2665       H  0.51435885  0.50218992  0.91977243     0.26100
C2666       C  0.65714396  0.44694727  0.74462036     0.42400
N2667       N  0.69005975  0.48473047  0.75081298     0.01300
C2668       C  0.79559641  0.05911282  0.64239929    -0.06600
H2669       H  0.80243134  0.43226273  0.65134814     0.06800
C2670       C  0.83355053  0.45472669  0.77337023    -0.06900
Co2671     Co  0.71997228  0.01316470  0.68909388     0.74200
N2672       N  0.77365516  0.46752621  0.67236700    -0.26100
Co2673     Co  0.80170538  0.00340401  0.69248436     0.74100
C2674       C  0.84824104  0.43423475  0.75094238     0.42500
N2675       N  0.76663294  0.48386895  0.80362084     0.00900
N2676       N  0.82188633  0.46936210  0.72593179     0.01000
N2677       N  0.74455884  0.06803285  0.64787534    -0.47000
H2678       H  0.66638877  0.44881199  0.69036348     0.06800
N2679       N  0.74319474  0.47186939  0.67202057     0.01300
N2680       N  0.82744929  0.03763668  0.71612804     0.01000
C2681       C  0.85672466  0.07750462  0.72782682     0.42600
N2682       N  0.73611434  0.48662814  0.80218746    -0.25600
C2683       C  0.67571917  0.07200652  0.69811050    -0.06500
N2684       N  0.66977873  0.46541537  0.76623012    -0.46700
N2685       N  0.84949368  0.05785368  0.70441745    -0.46900
C2686       C  0.66292722  0.08816074  0.72594752     0.42400
N2687       N  0.75216663  0.04404299  0.66604805     0.01300
N2688       N  0.74039114  0.05092221  0.79258370    -0.25600
N2689       N  0.69131633  0.48071570  0.71997447    -0.26100
N2690       N  0.77058383  0.04807482  0.79595589     0.00900
H2691       H  0.70629302  0.07915012  0.81488192     0.06800
H2692       H  0.83768565  0.07440636  0.77935590     0.06800
N2693       N  0.78229313  0.03863534  0.66409034    -0.26100
N2694       N  0.81832279  0.47549659  0.75625815    -0.25800
N2695       N  0.69553276  0.05270383  0.74068400     0.01300
C2696       C  0.74882052  0.42995272  0.64537349     0.42700
C2697       C  0.72227229  0.46697248  0.82412380    -0.07000
N2698       N  0.82116194  0.04148439  0.74645778    -0.25800
H2699       H  0.83545667  0.45503777  0.79885448     0.06800
N2700       N  0.72808459  0.45021199  0.65660131    -0.47000
H2701       H  0.69742728  0.46485395  0.82943935     0.06800
C2702       C  0.75783860  0.08477312  0.82755336     0.42500
C2703       C  0.67119371  0.45711938  0.71363775    -0.06500
Co2704     Co  0.71386202  0.01788131  0.76965086     0.73800
N2705       N  0.77471961  0.46308812  0.82588537    -0.46700
C2706       C  0.77041834  0.07895598  0.63146729     0.42800
N2707       N  0.67654180  0.07409602  0.75097868    -0.46700
Co2708     Co  0.79581064  0.51379721  0.77494062     0.73900
C2709       C  0.83707023  0.06661167  0.75530412    -0.07000
C2710       C  0.77958653  0.44145765  0.65596931    -0.06600
N2711       N  0.69582404  0.05066627  0.70968060    -0.26100
N2712       N  0.84031262  0.44493129  0.72144109    -0.46900
H2713       H  0.81975533  0.05948617  0.63458176     0.06800
C2714       C  0.73053845  0.07377467  0.81064106    -0.07000
Cl2715     Cl  0.75701977  0.01103406  0.73149659    -0.50000
C2716       C  0.74780236  0.45097794  0.83946183     0.42500
H2717       H  0.66874482  0.07411438  0.67372396     0.06700
N2718       N  0.78170804  0.06696734  0.81759707    -0.46700
C2719       C  0.89817632  0.40111251  0.84240865    -0.05500
C2720       C  0.88871621  0.38554105  0.87120440    -0.33000
C2721       C  0.89739475  0.39791781  0.90028097     0.36300
C2722       C  0.91568895  0.42575649  0.90019831    -0.05900
C2723       C  0.92501402  0.44076534  0.87116332    -0.32900
C2724       C  0.91618041  0.42894472  0.84265852     0.36200
H2725       H  0.87449093  0.36423227  0.87113310     0.16600
O2726       O  0.88727961  0.38338134  0.92836914    -0.60400
H2727       H  0.93914111  0.46219226  0.87068200     0.16600
O2728       O  0.92566569  0.44459880  0.81485360    -0.60500
H2729       H  0.91093302  0.46185556  0.81217796     0.43600
H2730       H  0.90104555  0.36539442  0.93136408     0.43500
C2731       C  0.54737567  0.07649446  0.85876173    -0.05500
C2732       C  0.52805935  0.08294880  0.83316329    -0.33000
C2733       C  0.54087221  0.09127793  0.80321659     0.36300
C2734       C  0.57351689  0.09284859  0.79843146    -0.05900
C2735       C  0.59278357  0.08956967  0.82463132    -0.32900
C2736       C  0.57984361  0.08167114  0.85484150     0.36200
H2737       H  0.50305142  0.07860930  0.83567637     0.16600
O2738       O  0.52136937  0.09516380  0.77826260    -0.60400
H2739       H  0.61792819  0.09227868  0.82155491     0.16600
O2740       O  0.59904540  0.07598406  0.87967550    -0.60500
H2741       H  0.61039874  0.05696859  0.87440210     0.43600
H2742       H  0.51338884  0.11653443  0.77996824     0.43500
C2743       C  0.92128775  0.05592148  0.87501808    -0.05500
C2744       C  0.94041082  0.04105011  0.85274158    -0.33000
C2745       C  0.94102457  0.05055724  0.82079347     0.36300
C2746       C  0.92249880  0.07514962  0.81097315    -0.05900
C2747       C  0.90138147  0.08805855  0.83246879    -0.32900
C2748       C  0.90036500  0.07820353  0.86435908     0.36200
H2749       H  0.95646884  0.02350287  0.86055423     0.16600
O2750       O  0.96100164  0.03701304  0.79979804    -0.60400
H2751       H  0.88574952  0.10594975  0.82444662     0.16600
O2752       O  0.87961513  0.09108191  0.88491752    -0.60500
H2753       H  0.85949322  0.07962190  0.88218081     0.43600
H2754       H  0.94859628  0.01969644  0.79096357     0.43500
C2755       C  0.57162652  0.41077218  0.81867208    -0.05500
C2756       C  0.53924004  0.41435973  0.81862188    -0.33000
C2757       C  0.52254027  0.41808214  0.84698433     0.36300
C2758       C  0.53845185  0.41818168  0.87570911    -0.05900
C2759       C  0.56908382  0.40776105  0.87616553    -0.32900
C2760       C  0.58613842  0.40466666  0.84763340     0.36200
H2761       H  0.52733655  0.41698703  0.79641935     0.16600
O2762       O  0.49207491  0.42687615  0.84593235    -0.60400
H2763       H  0.58071522  0.40624354  0.89834353     0.16600
O2764       O  0.61716553  0.39783891  0.84827374    -0.60500
H2765       H  0.61751049  0.37485553  0.85186085     0.43600
H2766       H  0.49305185  0.44953220  0.84005067     0.43500
C2767       C  0.62646954  0.41495123  0.96178207    -0.05500
C2768       C  0.63433629  0.39594398  0.93680152    -0.33000
C2769       C  0.66404260  0.39903453  0.92224544     0.36300
C2770       C  0.68639155  0.41994757  0.93406944    -0.05900
C2771       C  0.68049184  0.43410361  0.96262317    -0.32900
C2772       C  0.65045600  0.43232390  0.97623984     0.36200
H2773       H  0.61659551  0.38162265  0.92622226     0.16600
O2774       O  0.67048079  0.38339773  0.89514865    -0.60400
H2775       H  0.69842474  0.44847762  0.97298497     0.16600
O2776       O  0.64397339  0.45047711  0.00145679    -0.60500
H2777       H  0.63938908  0.47138673  0.99230795     0.43600
H2778       H  0.66746903  0.36088058  0.90110476     0.43500
C2779       C  0.69164076  0.07753536  0.92192926    -0.05500
C2780       C  0.69008575  0.04549270  0.92914793    -0.33000
C2781       C  0.66237913  0.03093111  0.94131341     0.36300
C2782       C  0.63504887  0.04832166  0.94545995    -0.05900
C2783       C  0.63719864  0.08079108  0.93979261    -0.32900
C2784       C  0.66518651  0.09542159  0.92799522     0.36200
H2785       H  0.71046520  0.03159457  0.92521364     0.16600
O2786       O  0.66251882  0.99980222  0.94982481    -0.60400
H2787       H  0.61683929  0.09469246  0.94352326     0.16600
O2788       O  0.66584031  0.12682413  0.92036948    -0.60500
H2789       H  0.66805640  0.13718168  0.94080793     0.43600
H2790       H  0.66815854  0.98903184  0.93017450     0.43500
C2791       C  0.69266029  0.06781897  0.56302185    -0.05500
C2792       C  0.68837801  0.03583486  0.55837209    -0.33000
C2793       C  0.65856991  0.02179300  0.56184816     0.36300
C2794       C  0.63294657  0.03988397  0.57054562    -0.05900
C2795       C  0.63779440  0.07101963  0.57752222    -0.32900
C2796       C  0.66729514  0.08520681  0.57374045     0.36200
H2797       H  0.70804450  0.02193309  0.55167385     0.16600
O2798       O  0.65424067  0.99113464  0.55443712    -0.60400
H2799       H  0.61836968  0.08438279  0.58509780     0.16600
O2800       O  0.67118847  0.11593309  0.58114635    -0.60500
H2801       H  0.67946406  0.11540496  0.60284424     0.43600
H2802       H  0.65850244  0.97887441  0.57415775     0.43500
C2803       C  0.65914490  0.38018087  0.60713356    -0.05500
C2804       C  0.63203354  0.37828474  0.62690657    -0.33000
C2805       C  0.60351322  0.38961350  0.61558261     0.36300
C2806       C  0.60251509  0.40271564  0.58439816    -0.05900
C2807       C  0.62917926  0.40197000  0.56467002    -0.32900
C2808       C  0.65725898  0.39195844  0.57571151     0.36200
H2809       H  0.63322233  0.36927846  0.65115698     0.16600
O2810       O  0.57721076  0.38876218  0.63502842    -0.60400
H2811       H  0.62911019  0.41201318  0.54096911     0.16600
O2812       O  0.68374297  0.39756387  0.55683077    -0.60500
H2813       H  0.67974922  0.38771584  0.53640763     0.43600
H2814       H  0.58255282  0.40113723  0.65358020     0.43500
C2815       C  0.92217818  0.14350540  0.97710299    -0.05500
C2816       C  0.93721659  0.16976168  0.98951605    -0.33000
C2817       C  0.94249197  0.19706758  0.97059083     0.36300
C2818       C  0.93277240  0.19806655  0.93906655    -0.05900
C2819       C  0.91589057  0.17254546  0.92765840    -0.32900
C2820       C  0.91011574  0.14566118  0.94680260     0.36200
H2821       H  0.94686155  0.16819567  0.01294628     0.16600
O2822       O  0.95734769  0.22243304  0.98291013    -0.60400
H2823       H  0.90633391  0.17386702  0.90417186     0.16600
O2824       O  0.89337733  0.12106390  0.93555877    -0.60500
H2825       H  0.87140565  0.12445713  0.94230229     0.43600
H2826       H  0.97903036  0.22247653  0.97399245     0.43500
C2827       C  0.54501130  0.13675664  0.95960177    -0.05500
C2828       C  0.56178588  0.13250634  0.93120840    -0.33000
C2829       C  0.57531948  0.15816697  0.91365463     0.36300
C2830       C  0.57214389  0.18864583  0.92443443    -0.05900
C2831       C  0.55519209  0.19300864  0.95271554    -0.32900
C2832       C  0.54154114  0.16734687  0.97022137     0.36200
H2833       H  0.56511699  0.10914124  0.92315693     0.16600
O2834       O  0.59243478  0.15317564  0.88645490    -0.60400
H2835       H  0.55283711  0.21629120  0.96141626     0.16600
O2836       O  0.52615085  0.17210664  0.99850194    -0.60500
H2837       H  0.50605281  0.18133426  0.99278022     0.43600
H2838       H  0.61440334  0.15229853  0.89308684     0.43500
C2839       C  0.91322170  0.12396371  0.61560720    -0.05500
C2840       C  0.92641290  0.15300059  0.60569519    -0.33000
C2841       C  0.91070686  0.18009720  0.61071565     0.36300
C2842       C  0.88159938  0.17878601  0.62725017    -0.05900
C2843       C  0.86914664  0.15001856  0.63960096    -0.32900
C2844       C  0.88484946  0.12235622  0.63357352     0.36200
H2845       H  0.94769749  0.15445389  0.59104210     0.16600
O2846       O  0.92252797  0.20768715  0.59679405    -0.60400
H2847       H  0.84702685  0.14893658  0.65275631     0.16600
O2848       O  0.87188434  0.09412733  0.64423967    -0.60500
H2849       H  0.86762073  0.08239090  0.62501296     0.43600
H2850       H  0.94408718  0.21039805  0.60438944     0.43500
C2851       C  0.60387895  0.17955230  0.61789574    -0.05500
C2852       C  0.57488821  0.18489174  0.60440676    -0.33000
C2853       C  0.55329820  0.16070268  0.60077878     0.36300
C2854       C  0.56113537  0.12985320  0.60863014    -0.05900
C2855       C  0.58925322  0.12430265  0.62413581    -0.32900
C2856       C  0.61071152  0.14917054  0.62896898     0.36200
H2857       H  0.56921107  0.20805754  0.59566738     0.16600
O2858       O  0.52551259  0.16702086  0.58681119    -0.60400
H2859       H  0.59525767  0.10064455  0.63076387     0.16600
O2860       O  0.63866701  0.14318184  0.64261529    -0.60500
H2861       H  0.63950612  0.15625617  0.66143845     0.43600
H2862       H  0.53035726  0.16839950  0.56368474     0.43500
C2863       C  0.76235789  0.65763146  0.04646227     0.42400
N2864       N  0.74950802  0.69443055  0.01355792     0.01300
C2865       C  0.85167950  0.79988501  0.43101956    -0.06600
H2866       H  0.83918718  0.81105808  0.05738604     0.06800
C2867       C  0.72382982  0.83415119  0.04136510    -0.06900
Co2868     Co  0.80633772  0.72587361  0.48118311     0.74200
N2869       N  0.82298535  0.78028671  0.02125062    -0.26100
Co2870     Co  0.79957925  0.80680839  0.98690423     0.74100
C2871       C  0.74756567  0.84701465  0.06152045     0.42500
N2872       N  0.69254534  0.76857611  0.01578751     0.00900
N2873       N  0.76937344  0.82527062  0.02153266     0.01000
N2874       N  0.84739535  0.74836882  0.42506716    -0.47000
H2875       H  0.81479172  0.66822759  0.03642780     0.06800
N2876       N  0.82496239  0.74984610  0.01800423     0.01300
N2877       N  0.77667893  0.83003352  0.45071123     0.01000
C2878       C  0.76525485  0.85702127  0.40832104     0.42600
N2879       N  0.69632492  0.73820512  0.01475666    -0.25600
C2880       C  0.79595839  0.68068703  0.42313590    -0.06500
N2881       N  0.73805738  0.67146611  0.03256719    -0.46700
N2882       N  0.78814851  0.85085359  0.42895390    -0.46900
C2883       C  0.76799732  0.66824742  0.40733919     0.42400
N2884       N  0.82852102  0.75691016  0.44807690     0.01300
N2885       N  0.70147516  0.74115160  0.44430606    -0.25600
N2886       N  0.78024800  0.69620060  0.01338456    -0.26100
N2887       N  0.69721705  0.77134997  0.44446679     0.00900
H2888       H  0.67939005  0.70358404  0.42036544     0.06800
H2889       H  0.71530418  0.83563994  0.41063681     0.06800
N2890       N  0.82979570  0.78727185  0.45179173    -0.26100
N2891       N  0.73901731  0.82133909  0.01767051    -0.25800
N2892       N  0.75458899  0.70014149  0.44358991     0.01300
C2893       C  0.84849473  0.75827372  0.06163607     0.42700
C2894       C  0.67917028  0.72380980  0.03810969    -0.07000
N2895       N  0.74699443  0.82276155  0.44661830    -0.25800
H2896       H  0.69870499  0.83378968  0.04448117     0.06800
N2897       N  0.83954826  0.73606043  0.04165450    -0.47000
H2898       H  0.67738594  0.69882117  0.04280904     0.06800
C2899       C  0.66476898  0.75385039  0.41002182     0.42500
C2900       C  0.79060602  0.67399648  0.03354351    -0.06500
Co2901     Co  0.72651279  0.71813447  0.47870095     0.73800
N2902       N  0.67322077  0.77610874  0.03951101    -0.46700
C2903       C  0.86380421  0.77376791  0.41302016     0.42800
N2904       N  0.74380296  0.68177202  0.42190397    -0.46700
Co2905     Co  0.71750908  0.79737573  0.98153685     0.73900
C2906       C  0.73880149  0.83619779  0.41928642    -0.07000
C2907       C  0.83739379  0.78792842  0.04813847    -0.06600
N2908       N  0.78522674  0.70063902  0.44484024    -0.26100
N2909       N  0.77574292  0.84072220  0.04777179    -0.46900
H2910       H  0.85889411  0.82426554  0.42918819     0.06800
C2911       C  0.68285097  0.72841059  0.42319298    -0.07000
Cl2912     Cl  0.76124080  0.76224910  0.98242323    -0.50000
C2913       C  0.66383937  0.74872129  0.05454488     0.42500
H2914       H  0.81998956  0.67400272  0.42023221     0.06700
N2915       N  0.67440484  0.77978371  0.42527253    -0.46700
C2916       C  0.64420709  0.74309656  0.08384751     0.80200
N2917       N  0.64228590  0.71297957  0.09521531    -0.78200
C2918       C  0.62452481  0.70453018  0.12117388     0.82600
N2919       N  0.61142295  0.72735346  0.13755643    -0.78100
C2920       C  0.60781556  0.75628445  0.12411996     0.82700
N2921       N  0.62453673  0.76449348  0.09656332    -0.79800
C2922       C  0.86132279  0.74993555  0.09310225     0.80200
N2923       N  0.88068791  0.76942106  0.10940166    -0.78200
C2924       C  0.89217275  0.75879479  0.13780304     0.82600
N2925       N  0.88401121  0.72944717  0.14873934    -0.78100
C2926       C  0.87006249  0.70869842  0.13029073     0.82700
N2927       N  0.85804288  0.71935978  0.10282410    -0.79800
C2928       C  0.59575580  0.74460159  0.35801845     0.80200
N2929       N  0.62311833  0.75674594  0.36932986    -0.78200
C2930       C  0.63254782  0.74738261  0.39897358     0.82600
N2931       N  0.61489489  0.72552601  0.41628692    -0.78100
C2932       C  0.58808644  0.71332484  0.40504438     0.82700
N2933       N  0.57900699  0.72259246  0.37587580    -0.79800
C2934       C  0.93468911  0.75283782  0.36840240     0.80200
N2935       N  0.91005141  0.77099146  0.37636139    -0.78200
C2936       C  0.89699736  0.76816141  0.40635627     0.82600
N2937       N  0.90869469  0.74743242  0.42743272    -0.78100
C2938       C  0.93088419  0.72768099  0.41900188     0.82700
N2939       N  0.94353889  0.72996447  0.38918816    -0.79800
N2940       N  0.97786000  0.61224844  0.47042511    -0.36700
N2941       N  0.53401893  0.59537548  0.03302827    -0.57200
N2942       N  0.98463156  0.59456195  0.08262613    -0.36700
N2943       N  0.93048512  0.59255096  0.04143575    -0.57200
C2944       C  0.50584377  0.59257150  0.47575612     0.26900
C2945       C  0.95207924  0.59734333  0.48334279     0.26900
C2946       C  0.51213681  0.59520745  0.10088590     0.26900
C2947       C  0.96023273  0.59053283  0.10395902     0.26900
C2948       C  0.55158179  0.60317093  0.50604303     0.35500
C2949       C  0.55214141  0.60458234  0.05653741     0.35500
C2950       C  0.91228327  0.60740125  0.52257903     0.35500
C2951       C  0.91484207  0.59865149  0.06833523     0.35500
C2952       C  0.49635860  0.56359044  0.48911292    -0.22000
C2953       C  0.95901721  0.56787346  0.49480996    -0.22000
C2954       C  0.50495805  0.59054298  0.13292998    -0.22000
C2955       C  0.97173547  0.58699472  0.13421054    -0.22000
C2956       C  0.58018597  0.61733430  0.51149264    -0.23000
C2957       C  0.57993657  0.61818965  0.04381184    -0.23000
C2958       C  0.88513692  0.61992021  0.53386603    -0.23000
C2959       C  0.88690465  0.61290056  0.06082841    -0.23000
C2960       C  0.53556921  0.60685358  0.47769777    -0.18400
C2961       C  0.92531319  0.61316278  0.49204278    -0.18400
C2962       C  0.92875319  0.59863825  0.09847918    -0.18400
C2963       C  0.54224804  0.60531101  0.08878118    -0.18400
H2964       H  0.50989464  0.54649345  0.50081874     0.14500
H2965       H  0.94356483  0.55128375  0.50797880     0.14500
H2966       H  0.52109357  0.59135622  0.15214916     0.14500
H2967       H  0.95818818  0.58553186  0.15631650     0.14500
H2968       H  0.59612426  0.62912570  0.49425758     0.12800
H2969       H  0.59829598  0.63004528  0.05609155     0.12800
H2970       H  0.86793780  0.63218753  0.52030898     0.12800
H2971       H  0.86974055  0.62248258  0.07659954     0.12800
H2972       H  0.97986548  0.63552705  0.46224098     0.26100
H2973       H  0.98315370  0.60119133  0.05876252     0.26100
C2974       C  0.57925069  0.66693574  0.21570704     0.42400
N2975       N  0.54497017  0.69915341  0.23352983     0.01300
C2976       C  0.94056330  0.79631723  0.15773129    -0.06600
H2977       H  0.57411164  0.81845431  0.14556538     0.06800
C2978       C  0.57664966  0.83187664  0.24978049    -0.06900
Co2979     Co  0.00311995  0.72771328  0.18488190     0.74200
N2980       N  0.53624782  0.78595058  0.16126565    -0.26100
Co2981     Co  0.00612126  0.80933848  0.19117421     0.74100
C2982       C  0.58575283  0.85409433  0.22335599     0.42500
N2983       N  0.55132317  0.76899820  0.29274570     0.00900
N2984       N  0.54249828  0.82901291  0.21391876     0.01000
N2985       N  0.94267019  0.74411021  0.15630264    -0.47000
H2986       H  0.55856568  0.67150212  0.16596669     0.06800
N2987       N  0.53267412  0.75563994  0.15791483     0.01300
N2988       N  0.97566809  0.83034501  0.22424908     0.01000
C2989       C  0.94064136  0.85593683  0.24981196     0.42600
N2990       N  0.55015020  0.73877206  0.28886334    -0.25600
C2991       C  0.94990456  0.67803310  0.20390759    -0.06500
N2992       N  0.56799231  0.68102039  0.24160427    -0.46700
N2993       N  0.95125004  0.84896895  0.22015382    -0.46900
C2994       C  0.93978866  0.66126563  0.23354848     0.42400
N2995       N  0.96789994  0.75573432  0.16867478     0.01300
N2996       N  0.98185077  0.74013628  0.29743906    -0.25600
N2997       N  0.53977540  0.69946084  0.20294387    -0.26100
N2998       N  0.98352953  0.77069334  0.30025434     0.00900
H2999       H  0.95636016  0.70328018  0.32425040     0.06800
H3000       H  0.96041664  0.84001619  0.29761683     0.06800
N3001       N  0.96778678  0.78645551  0.17010548    -0.26100
N3002       N  0.54847518  0.82039999  0.24330538    -0.25800
N3003       N  0.97487866  0.69667126  0.24330415     0.01300
C3004       C  0.57557282  0.76709181  0.13073550     0.42700
C3005       C  0.57108485  0.72532257  0.30746571    -0.07000
N3006       N  0.98150229  0.82509556  0.25452847    -0.25800
H3007       H  0.58677958  0.83003321  0.27293673     0.06800
N3008       N  0.55452868  0.74430802  0.13979290    -0.45200
H3009       H  0.57274527  0.70038820  0.31177927     0.06800
C3010       C  0.94966207  0.75464232  0.33640075     0.42500
C3011       C  0.55941543  0.67887886  0.18993129    -0.06500
Co3012     Co  0.01229409  0.71847822  0.26572428     0.73800
N3013       N  0.57128006  0.77688084  0.31495256    -0.46700
C3014       C  0.92393375  0.76755180  0.14831288     0.42800
N3015       N  0.95666411  0.67410220  0.25656435    -0.46700
Co3016     Co  0.01686235  0.79711543  0.27259200     0.73900
C3017       C  0.96100082  0.84014776  0.27198025    -0.07000
C3018       C  0.56337705  0.79532431  0.14547592    -0.06600
N3019       N  0.97164219  0.69935492  0.21238469    -0.26100
N3020       N  0.56369198  0.84954086  0.20145074    -0.46900
H3021       H  0.93311086  0.82019395  0.15631973     0.06800
C3022       C  0.96130156  0.72793330  0.31947009    -0.07000
Cl3023     Cl  0.00935795  0.76312490  0.22870686    -0.50000
C3024       C  0.58554654  0.75050670  0.32498665     0.42500
H3025       H  0.94439343  0.67279962  0.17983285     0.06700
N3026       N  0.96512062  0.78029140  0.32358502    -0.46700
C3027       C  0.73829835  0.86099689  0.09223771     0.80200
N3028       N  0.70785965  0.85458624  0.10015310    -0.78200
C3029       C  0.69091369  0.87288895  0.11864952     0.82600
N3030       N  0.70583037  0.89637251  0.13283103    -0.78100
C3031       C  0.73707506  0.90220003  0.12824253     0.82700
N3032       N  0.75344537  0.88558170  0.10612094    -0.79800
C3033       C  0.75940549  0.62472938  0.05712419     0.80200
N3034       N  0.77421452  0.61288260  0.08299157    -0.78200
C3035       C  0.76729497  0.58283173  0.09353855     0.82600
N3036       N  0.74521034  0.56597414  0.07902054    -0.78100
C3037       C  0.72876366  0.57846691  0.05541293     0.82700
N3038       N  0.73613636  0.60775014  0.04436531    -0.79800
C3039       C  0.76174780  0.63622863  0.39662067     0.80200
N3040       N  0.73900250  0.61988962  0.41378017    -0.78200
C3041       C  0.72590747  0.59348183  0.40329253     0.82600
N3042       N  0.73548600  0.58304414  0.37499098    -0.78100
C3043       C  0.75794813  0.59879156  0.35684405     0.82700
N3044       N  0.77077421  0.62620629  0.36728337    -0.79800
C3045       C  0.74007260  0.92717011  0.36397071     0.80200
N3046       N  0.75989435  0.90392524  0.37232726    -0.78200
C3047       C  0.75610219  0.88923952  0.40159928     0.82600
N3048       N  0.73321421  0.89808318  0.42158342    -0.78100
C3049       C  0.71188392  0.91824610  0.41222532     0.82700
N3050       N  0.71492878  0.93262152  0.38315582    -0.79800
N3051       N  0.60963995  0.54684604  0.00664625    -0.36700
N3052       N  0.57482376  0.97801621  0.07025431    -0.57200
N3053       N  0.57430927  0.93570714  0.01916164    -0.36700
N3054       N  0.58540499  0.98145944  0.45947860    -0.57200
C3055       C  0.59129568  0.53778074  0.03222933     0.26900
C3056       C  0.59502182  0.54109853  0.47896494     0.26900
C3057       C  0.56665908  0.91658641  0.04493706     0.26900
C3058       C  0.57536703  0.91935074  0.49123846     0.26900
C3059       C  0.59159770  0.50517355  0.08086661     0.35500
C3060       C  0.57930934  0.95210823  0.08825317     0.35500
C3061       C  0.60252708  0.50502294  0.43826205     0.35500
C3062       C  0.59293950  0.95505760  0.44581306     0.35500
C3063       C  0.56162208  0.52961574  0.02288081    -0.22000
C3064       C  0.56472035  0.53145226  0.48728299    -0.22000
C3065       C  0.55893972  0.88704760  0.03475976    -0.22000
C3066       C  0.56365983  0.88973368  0.49973278    -0.22000
C3067       C  0.60344945  0.49560974  0.10960732    -0.23000
C3068       C  0.59482317  0.96021481  0.11543582    -0.23000
C3069       C  0.61621416  0.49295636  0.41167114    -0.23000
C3070       C  0.61004501  0.96234518  0.41768415    -0.23000
C3071       C  0.60338691  0.53102285  0.06221080    -0.18400
C3072       C  0.60998295  0.53447115  0.45023887    -0.18400
C3073       C  0.59313137  0.92612552  0.46299924    -0.18400
C3074       C  0.57697112  0.92174152  0.07618263    -0.18400
H3075       H  0.54216617  0.52037404  0.03765568     0.14500
H3076       H  0.54716191  0.52348771  0.47126948     0.14500
H3077       H  0.55456106  0.86613056  0.04962439     0.14500
H3078       H  0.56253644  0.86990253  0.48466436     0.14500
H3079       H  0.61861830  0.50901680  0.12438274     0.12800
H3080       H  0.60386162  0.94506037  0.13371135     0.12800
H3081       H  0.63069167  0.50530998  0.39353813     0.12800
H3082       H  0.62216059  0.94672425  0.40252538     0.12800
H3083       H  0.63373687  0.55138266  0.00614765     0.26100
H3084       H  0.58486942  0.95788938  0.01924639     0.26100
C3085       C  0.59232459  0.88561066  0.23446608     0.80200
N3086       N  0.61877339  0.90319251  0.22636690    -0.78200
C3087       C  0.62746497  0.92690711  0.24549581     0.82600
N3088       N  0.61166720  0.93036483  0.27358515    -0.78100
C3089       C  0.58549992  0.91285733  0.28105859     0.82700
N3090       N  0.57547379  0.89198310  0.26081383    -0.79800
C3091       C  0.89119296  0.58724134  0.22810901     0.80200
N3092       N  0.90270372  0.61700548  0.22071780    -0.78200
C3093       C  0.92629231  0.62918702  0.23826949     0.82600
N3094       N  0.93543204  0.61298683  0.26439881    -0.78100
C3095       C  0.92397469  0.58391490  0.27178122     0.82700
N3096       N  0.90292759  0.57097779  0.25295475    -0.79800
C3097       C  0.59009462  0.63456112  0.22164404     0.80200
N3098       N  0.57411742  0.61964896  0.24612886    -0.78200
C3099       C  0.58624532  0.59611907  0.26309165     0.82600
N3100       N  0.61460809  0.58572487  0.25448066    -0.78100
C3101       C  0.63086306  0.59835857  0.22866647     0.82700
N3102       N  0.61930855  0.62428353  0.21296737    -0.79800
C3103       C  0.87135640  0.90958379  0.26131475     0.80200
N3104       N  0.89315128  0.89259143  0.24467819    -0.78200
C3105       C  0.91468012  0.87574386  0.26195472     0.82600
N3106       N  0.91448958  0.87760166  0.29404163    -0.78100
C3107       C  0.89336496  0.89387847  0.30990349     0.82700
N3108       N  0.87234205  0.90947191  0.29337045    -0.79800
N3109       N  0.93380651  0.99900210  0.43246842    -0.36700
N3110       N  0.97654902  0.54095539  0.40579340    -0.57200
N3111       N  0.53408725  0.00085678  0.39804644    -0.36700
N3112       N  0.98127588  0.95262767  0.42234697    -0.57200
C3113       C  0.90879210  0.51823951  0.41579600     0.26900
C3114       C  0.91524941  0.97281515  0.43350164     0.26900
C3115       C  0.54170874  0.52262290  0.38307045     0.26900
C3116       C  0.54356541  0.97412448  0.38503563     0.26900
C3117       C  0.95130347  0.55819903  0.41093404     0.35500
C3118       C  0.50519706  0.56325102  0.39830349     0.35500
C3119       C  0.95752112  0.93496883  0.43584146     0.35500
C3120       C  0.51103269  0.93608041  0.41811518     0.35500
C3121       C  0.87897156  0.50750078  0.40942805    -0.22000
C3122       C  0.88503375  0.98048861  0.42598004    -0.22000
C3123       C  0.56195631  0.51121909  0.36041751    -0.22000
C3124       C  0.56249913  0.98149375  0.35842065    -0.22000
C3125       C  0.95977256  0.58957117  0.40634257    -0.23000
C3126       C  0.49398146  0.59312767  0.39597725    -0.23000
C3127       C  0.96676216  0.90431700  0.43939394    -0.23000
C3128       C  0.50318258  0.90657518  0.43074651    -0.23000
C3129       C  0.92174664  0.54672621  0.40306448    -0.18400
C3130       C  0.92644759  0.94234865  0.43003028    -0.18400
C3131       C  0.53463058  0.94304184  0.39511597    -0.18400
C3132       C  0.53278427  0.55415527  0.38287335    -0.18400
H3133       H  0.86101615  0.52043406  0.39767926     0.14500
H3134       H  0.86557818  0.96437166  0.42265842     0.14500
H3135       H  0.57471829  0.52351102  0.34108963     0.14500
H3136       H  0.57386013  0.96630174  0.34240306     0.14500
H3137       H  0.94428736  0.60893206  0.40473447     0.12800
H3138       H  0.50628071  0.61400616  0.38646017     0.12800
H3139       H  0.95201100  0.88411419  0.44620327     0.12800
H3140       H  0.51623767  0.88554604  0.42815894     0.12800
H3141       H  0.95787403  0.00014923  0.43466084     0.26100
H3142       H  0.52006972  0.00267670  0.41838935     0.26100
C3143       C  0.65498373  0.94786669  0.23844689     0.42400
N3144       N  0.68849996  0.98481273  0.24652455     0.01300
C3145       C  0.79612197  0.55396094  0.13906304    -0.06600
H3146       H  0.80213813  0.93191754  0.15058341     0.06800
C3147       C  0.83101120  0.95112606  0.27149997    -0.06900
Co3148     Co  0.72066518  0.51035419  0.18938858     0.74200
N3149       N  0.77374823  0.96819180  0.17018361    -0.26100
Co3150     Co  0.80251804  0.50106926  0.19173892     0.74100
C3151       C  0.84752793  0.93201437  0.24899298     0.42500
N3152       N  0.76397605  0.98030526  0.30064638     0.00900
N3153       N  0.82149858  0.96773525  0.22411796     0.01000
N3154       N  0.74465265  0.56194981  0.14271932    -0.47000
H3155       H  0.66561274  0.95111282  0.18439280     0.06800
N3156       N  0.74344670  0.97324831  0.16909212     0.01300
N3157       N  0.82904503  0.53672455  0.21287139     0.01000
C3158       C  0.85877565  0.57729074  0.22170605     0.42600
N3159       N  0.73358571  0.98362641  0.29857276    -0.25600
C3160       C  0.67588606  0.56904423  0.19639475    -0.06500
N3161       N  0.66748773  0.96551365  0.26084701    -0.46700
N3162       N  0.85103754  0.55618746  0.19972700    -0.46900
C3163       C  0.66310463  0.58625923  0.22354615     0.42400
N3164       N  0.75243013  0.53968565  0.16308007     0.01300
N3165       N  0.74367148  0.55353079  0.29020466    -0.25600
N3166       N  0.69044717  0.98159725  0.21560244    -0.26100
N3167       N  0.77394494  0.55090186  0.29310954     0.00900
H3168       H  0.70998021  0.58240047  0.31220078     0.06800
H3169       H  0.84040784  0.57736369  0.27336051     0.06800
N3170       N  0.78270498  0.53467731  0.16179775    -0.26100
N3171       N  0.81653072  0.97256221  0.25454142    -0.25800
N3172       N  0.69716722  0.55260483  0.23935019     0.01300
C3173       C  0.74879474  0.93107918  0.14310943     0.42700
C3174       C  0.71891676  0.96279080  0.31874768    -0.07000
N3175       N  0.82332218  0.54244136  0.24289995    -0.25800
H3176       H  0.83198655  0.95072566  0.29708902     0.06800
N3177       N  0.72820620  0.95180886  0.15355772    -0.47000
H3178       H  0.69392952  0.96063412  0.32314237     0.06800
C3179       C  0.76175821  0.58863943  0.32376128     0.42500
C3180       C  0.67000662  0.95862501  0.20805602    -0.06500
Co3181     Co  0.71653405  0.51924942  0.26958802     0.73800
N3182       N  0.77115550  0.95806128  0.32176677    -0.46700
C3183       C  0.77082907  0.57265974  0.12662466     0.42800
N3184       N  0.67760805  0.57387173  0.24891472    -0.46700
Co3185     Co  0.79442822  0.01070891  0.27401204     0.73900
C3186       C  0.83929066  0.56821621  0.24987896    -0.07000
C3187       C  0.77948691  0.94187517  0.15426102    -0.06600
N3188       N  0.69689508  0.54895746  0.20852973    -0.26100
N3189       N  0.84094352  0.94406778  0.21952010    -0.46900
H3190       H  0.82040785  0.55411675  0.13154536     0.06800
C3191       C  0.73417536  0.57706404  0.30757118    -0.07000
Cl3192     Cl  0.75887134  0.51070290  0.23097330    -0.50000
C3193       C  0.74377587  0.94552987  0.33379555     0.42500
H3194       H  0.66807375  0.56937809  0.17225879     0.06700
N3195       N  0.78542701  0.57056947  0.31384202    -0.46700
C3196       C  0.90057359  0.90472622  0.34136100    -0.05500
C3197       C  0.89100384  0.88817604  0.36957661    -0.33000
C3198       C  0.89849974  0.90007102  0.39919793     0.36300
C3199       C  0.91576532  0.92843826  0.40025001    -0.05900
C3200       C  0.92483754  0.94467932  0.37175022    -0.32900
C3201       C  0.91699165  0.93336321  0.34270665     0.36200
H3202       H  0.87773568  0.86634569  0.36863221     0.16600
O3203       O  0.88840300  0.88443958  0.42673050    -0.60400
H3204       H  0.93835295  0.96640899  0.37210830     0.16600
O3205       O  0.92620268  0.95014567  0.31548224    -0.60500
H3206       H  0.90955244  0.96536633  0.31191470     0.43600
H3207       H  0.90140737  0.86573900  0.42841604     0.43500
C3208       C  0.54505652  0.57401349  0.35522119    -0.05500
C3209       C  0.52631764  0.57570493  0.32846492    -0.33000
C3210       C  0.53947842  0.58276739  0.29830217     0.36300
C3211       C  0.57194035  0.58788904  0.29447641    -0.05900
C3212       C  0.59035518  0.58886616  0.32140996    -0.32900
C3213       C  0.57707997  0.58214047  0.35172577     0.36200
H3214       H  0.50176938  0.56903745  0.33065924     0.16600
O3215       O  0.52080641  0.58233375  0.27246401    -0.60400
H3216       H  0.61518762  0.59430103  0.31889950     0.16600
O3217       O  0.59592709  0.58067027  0.37736482    -0.60500
H3218       H  0.60692187  0.56073297  0.37589304     0.43600
H3219       H  0.51091233  0.60295937  0.27163934     0.43500
C3220       C  0.91580990  0.55324829  0.36897674    -0.05500
C3221       C  0.92921999  0.53361482  0.34656057    -0.33000
C3222       C  0.93214254  0.54309974  0.31451656     0.36300
C3223       C  0.92293627  0.57300840  0.30496696    -0.05900
C3224       C  0.90782678  0.59168735  0.32684600    -0.32900
C3225       C  0.90357629  0.58164591  0.35846251     0.36200
H3226       H  0.93888241  0.51162386  0.35426698     0.16600
O3227       O  0.94541594  0.52379578  0.29312441    -0.60400
H3228       H  0.89881768  0.61403012  0.31921548     0.16600
O3229       O  0.88837020  0.60026372  0.37900378    -0.60500
H3230       H  0.86705340  0.59073912  0.38196021     0.43600
H3231       H  0.92777003  0.51100155  0.28538619     0.43500
C3232       C  0.57055958  0.91189988  0.31268379    -0.05500
C3233       C  0.53800585  0.91362836  0.31573211    -0.33000
C3234       C  0.52383857  0.91689195  0.34560154     0.36300
C3235       C  0.54254394  0.91872484  0.37240520    -0.05900
C3236       C  0.57363726  0.90983533  0.36986358    -0.32900
C3237       C  0.58799734  0.90686505  0.33999446     0.36200
H3238       H  0.52392594  0.91502034  0.29484964     0.16600
O3239       O  0.49261821  0.92294985  0.34781726    -0.60400
H3240       H  0.58761121  0.90962096  0.39045690     0.16600
O3241       O  0.61934944  0.90149808  0.33764782    -0.60500
H3242       H  0.62080891  0.87844351  0.33842301     0.43600
H3243       H  0.49124198  0.94565834  0.34280941     0.43500
C3244       C  0.62378863  0.91136456  0.46061306    -0.05500
C3245       C  0.62953297  0.89246239  0.43497589    -0.33000
C3246       C  0.65842349  0.89503257  0.41863878     0.36300
C3247       C  0.68188489  0.91551804  0.42914155    -0.05900
C3248       C  0.67832315  0.92876822  0.45856460    -0.32900
C3249       C  0.64932799  0.92692939  0.47441047     0.36200
H3250       H  0.61069617  0.87869439  0.42548778     0.16600
O3251       O  0.66303112  0.87895235  0.39150563    -0.60400
H3252       H  0.69740699  0.94211679  0.46827372     0.16600
O3253       O  0.64532732  0.94330143  0.50140575    -0.60500
H3254       H  0.63943630  0.96451281  0.49425190     0.43600
H3255       H  0.66420844  0.85672762  0.39866512     0.43500
C3256       C  0.69748969  0.57974257  0.41918499    -0.05500
C3257       C  0.69667301  0.54830420  0.42893105    -0.33000
C3258       C  0.66883284  0.53374592  0.44065765     0.36300
C3259       C  0.64073906  0.55033023  0.44124624    -0.05900
C3260       C  0.64214330  0.58246415  0.43347659    -0.32900
C3261       C  0.67034941  0.59725946  0.42264118     0.36200
H3262       H  0.71768945  0.53491751  0.42732938     0.16600
O3263       O  0.66947486  0.50350181  0.45222408    -0.60400
H3264       H  0.62116678  0.59589622  0.43494628     0.16600
O3265       O  0.67075247  0.62835271  0.41358415    -0.60500
H3266       H  0.67151130  0.63963492  0.43362344     0.43600
H3267       H  0.67635908  0.49112361  0.43407366     0.43500
C3268       C  0.69660643  0.56664974  0.05376624    -0.05500
C3269       C  0.69073005  0.53449329  0.05186388    -0.33000
C3270       C  0.66061399  0.52186142  0.05774580     0.36300
C3271       C  0.63607770  0.54153900  0.06602898    -0.05900
C3272       C  0.64231283  0.57331425  0.06911751    -0.32900
C3273       C  0.67213838  0.58607857  0.06282310     0.36200
H3274       H  0.70958641  0.51918371  0.04612915     0.16600
O3275       O  0.65488674  0.49073910  0.05325332    -0.60400
H3276       H  0.62371891  0.58831805  0.07559525     0.16600
O3277       O  0.67727979  0.61745153  0.06658251    -0.60500
H3278       H  0.68369305  0.61923915  0.08883246     0.43600
H3279       H  0.66112561  0.47981362  0.07310233     0.43500
C3280       C  0.65898605  0.87830526  0.10824262    -0.05500
C3281       C  0.63245494  0.87646222  0.12878553    -0.33000
C3282       C  0.60348417  0.88720002  0.11811857     0.36300
C3283       C  0.60153514  0.89999373  0.08692675    -0.05900
C3284       C  0.62747735  0.89863726  0.06624084    -0.32900
C3285       C  0.65597792  0.88890007  0.07655003     0.36200
H3286       H  0.63446349  0.86806683  0.15315048     0.16600
O3287       O  0.57766122  0.88628439  0.13822888    -0.60400
H3288       H  0.62659083  0.90805622  0.04231209     0.16600
O3289       O  0.68181204  0.89384637  0.05660980    -0.60500
H3290       H  0.67697797  0.88349399  0.03664910     0.43600
H3291       H  0.58363135  0.89807691  0.15697590     0.43500
C3292       C  0.92140755  0.64407761  0.47638643    -0.05500
C3293       C  0.93674444  0.67043268  0.48824148    -0.33000
C3294       C  0.94144323  0.69766519  0.46913799     0.36300
C3295       C  0.93130816  0.69835831  0.43776927    -0.05900
C3296       C  0.91434741  0.67262133  0.42679875    -0.32900
C3297       C  0.90885001  0.64587175  0.44631703     0.36200
H3298       H  0.94651864  0.66919705  0.51162252     0.16600
O3299       O  0.95577842  0.72341333  0.48128785    -0.60400
H3300       H  0.90441758  0.67373807  0.40348088     0.16600
O3301       O  0.89149894  0.62124145  0.43592329    -0.60500
H3302       H  0.86969060  0.62512837  0.44286330     0.43600
H3303       H  0.97715637  0.72447350  0.47154375     0.43500
C3304       C  0.54445363  0.63480258  0.45697744    -0.05500
C3305       C  0.55914250  0.63087155  0.42745369    -0.33000
C3306       C  0.57271672  0.65655388  0.41000721     0.36300
C3307       C  0.57168740  0.68668047  0.42212836    -0.05900
C3308       C  0.55619936  0.69082438  0.45127584    -0.32900
C3309       C  0.54234640  0.66520510  0.46856247     0.36200
H3310       H  0.56127598  0.60764500  0.41870689     0.16600
O3311       O  0.58817981  0.65185010  0.38177223    -0.60400
H3312       H  0.55532628  0.71386406  0.46087288     0.16600
O3313       O  0.52863771  0.66976337  0.49774046    -0.60500
H3314       H  0.50593038  0.67049234  0.49408946     0.43600
H3315       H  0.61010789  0.64815358  0.38740589     0.43500
C3316       C  0.91725358  0.62353794  0.11877163    -0.05500
C3317       C  0.93231317  0.65248046  0.11225877    -0.33000
C3318       C  0.91667225  0.67987016  0.11618171     0.36300
C3319       C  0.88596746  0.67884394  0.12925706    -0.05900
C3320       C  0.87201361  0.65006226  0.13975746    -0.32900
C3321       C  0.88761997  0.62217250  0.13435769     0.36200
H3322       H  0.95477952  0.65386559  0.09964157     0.16600
O3323       O  0.92989112  0.70735291  0.10333216    -0.60400
H3324       H  0.84862660  0.64911113  0.15027600     0.16600
O3325       O  0.87280787  0.59393517  0.14162354    -0.60500
H3326       H  0.86304446  0.58771713  0.12177706     0.43600
H3327       H  0.95199484  0.70815313  0.10972672     0.43500
C3328       C  0.60346502  0.67707488  0.11800211    -0.05500
C3329       C  0.57427245  0.68333673  0.10538416    -0.33000
C3330       C  0.55219512  0.65975314  0.10124161     0.36300
C3331       C  0.55981996  0.62848881  0.10710570    -0.05900
C3332       C  0.58887892  0.62170722  0.12024613    -0.32900
C3333       C  0.61078808  0.64597976  0.12586371     0.36200
H3334       H  0.56877865  0.70679990  0.09755785     0.16600
O3335       O  0.52416953  0.66720514  0.08835503    -0.60400
H3336       H  0.59531428  0.59764086  0.12395415     0.16600
O3337       O  0.63976465  0.63883016  0.13645597    -0.60500
H3338       H  0.64151567  0.64879321  0.15714016     0.43600
H3339       H  0.52866426  0.67063468  0.06527512     0.43500
C3340       C  0.76296002  0.65797122  0.54715107     0.42400
N3341       N  0.75135899  0.69418723  0.51314942     0.01300
C3342       C  0.85027634  0.79960502  0.93095030    -0.06600
H3343       H  0.83951440  0.81287926  0.55663279     0.06800
C3344       C  0.72482627  0.83346064  0.54074077    -0.06900
Co3345     Co  0.80416044  0.72600361  0.98074738     0.74200
N3346       N  0.82410154  0.78111046  0.52109781    -0.26100
Co3347     Co  0.80096855  0.80703215  0.48646784     0.74100
C3348       C  0.74830420  0.84742044  0.56062268     0.42500
N3349       N  0.69429502  0.76770487  0.51443463     0.00900
N3350       N  0.77047242  0.82571147  0.52068586     0.01000
N3351       N  0.84556581  0.74814524  0.92485136    -0.47000
H3352       H  0.81575261  0.66821315  0.53856372     0.06800
N3353       N  0.82638121  0.75061186  0.51845226     0.01300
N3354       N  0.77486792  0.83034431  0.95159881     0.01000
C3355       C  0.76260334  0.85850632  0.91034852     0.42600
N3356       N  0.69825037  0.73735813  0.51345613    -0.25600
C3357       C  0.79224701  0.68217533  0.92219523    -0.06500
N3358       N  0.73924945  0.67170410  0.53228865    -0.46700
N3359       N  0.78595463  0.85178723  0.93027418    -0.46900
C3360       C  0.76383974  0.67025068  0.90691662     0.42400
N3361       N  0.82656178  0.75685464  0.94770791     0.01300
N3362       N  0.69868512  0.74230145  0.94555699    -0.25600
N3363       N  0.78206636  0.69596478  0.51380418    -0.26100
N3364       N  0.69477450  0.77254416  0.94573417     0.00900
H3365       H  0.67667988  0.70516329  0.92090011     0.06800
H3366       H  0.71243612  0.83780554  0.91341576     0.06800
N3367       N  0.82814125  0.78717461  0.95162227    -0.26100
N3368       N  0.74020629  0.82101777  0.51689148    -0.25800
N3369       N  0.75143946  0.70133839  0.94403643     0.01300
C3370       C  0.84933762  0.76034819  0.56208494     0.42700
C3371       C  0.68128180  0.72292236  0.53695599    -0.07000
N3372       N  0.74502066  0.82342089  0.94789595    -0.25800
H3373       H  0.69974232  0.83232061  0.54406199     0.06800
N3374       N  0.84084929  0.73750966  0.54257014    -0.47000
H3375       H  0.67979930  0.69795961  0.54187478     0.06800
C3376       C  0.66262315  0.75565493  0.91062964     0.42500
C3377       C  0.79171788  0.67397286  0.53470073    -0.06500
Co3378     Co  0.72404994  0.71892997  0.97964995     0.73800
N3379       N  0.67499467  0.77516177  0.53819555    -0.46700
C3380       C  0.86219155  0.77340190  0.91281388     0.42800
N3381       N  0.74003845  0.68365351  0.92215507    -0.46700
Co3382     Co  0.71931558  0.79663365  0.48036751     0.73900
C3383       C  0.73621996  0.83773272  0.92129361    -0.07000
C3384       C  0.83811878  0.78952658  0.54787878    -0.06600
N3385       N  0.78210899  0.70163632  0.94458358    -0.26100
N3386       N  0.77656220  0.84172815  0.54667720    -0.46900
H3387       H  0.85794740  0.82387939  0.92938885     0.06800
C3388       C  0.68019807  0.72992428  0.92409475    -0.07000
Cl3389     Cl  0.76319123  0.76186556  0.48187954    -0.50000
C3390       C  0.66585601  0.74777883  0.55337359     0.42500
H3391       H  0.81618035  0.67547541  0.91851411     0.06700
N3392       N  0.67231949  0.78137436  0.92623400    -0.46700
C3393       C  0.64624849  0.74227749  0.58271678     0.80200
N3394       N  0.64441524  0.71227186  0.59447425    -0.78200
C3395       C  0.62655351  0.70405607  0.62046670     0.82600
N3396       N  0.61300516  0.72700604  0.63629873    -0.78100
C3397       C  0.60952603  0.75582670  0.62253166     0.82700
N3398       N  0.62646112  0.76375610  0.59506103    -0.79800
C3399       C  0.86063926  0.75306766  0.59432492     0.80200
N3400       N  0.88026955  0.77256154  0.61023195    -0.78200
C3401       C  0.89046518  0.76283724  0.63947705     0.82600
N3402       N  0.88068418  0.73439972  0.65166719    -0.78100
C3403       C  0.86724219  0.71314131  0.63341479     0.82700
N3404       N  0.85601000  0.72306164  0.60532964    -0.79800
C3405       C  0.59438130  0.74612642  0.85727665     0.80200
N3406       N  0.62143645  0.75866907  0.86906608    -0.78200
C3407       C  0.63051454  0.74942661  0.89894937     0.82600
N3408       N  0.61289723  0.72732583  0.91588073    -0.78100
C3409       C  0.58663580  0.71457920  0.90411342     0.82700
N3410       N  0.57782713  0.72373399  0.87482432    -0.79800
C3411       C  0.93360108  0.75342676  0.86760211     0.80200
N3412       N  0.90837208  0.77084055  0.87561348    -0.78200
C3413       C  0.89534099  0.76757536  0.90565580     0.82600
N3414       N  0.90742609  0.74691852  0.92656783    -0.78100
C3415       C  0.93045781  0.72809337  0.91812186     0.82700
N3416       N  0.94320916  0.73100170  0.88840392    -0.79800
N3417       N  0.98048480  0.61264969  0.96678882    -0.36700
N3418       N  0.53703766  0.59333557  0.53367409    -0.57200
N3419       N  0.98412432  0.59801610  0.58709079    -0.36700
N3420       N  0.92948281  0.59641749  0.54671600    -0.57200
C3421       C  0.50452065  0.59483628  0.97486639     0.26900
C3422       C  0.95494851  0.59668747  0.97883076     0.26900
C3423       C  0.51571976  0.59322896  0.60114464     0.26900
C3424       C  0.96001041  0.59598141  0.60892144     0.26900
C3425       C  0.54979120  0.60393935  0.00561793     0.35500
C3426       C  0.55554051  0.60256683  0.55688903     0.35500
C3427       C  0.91380743  0.60443097  0.01730671     0.35500
C3428       C  0.91413022  0.60295197  0.57364501     0.35500
C3429       C  0.49384336  0.56614427  0.98805844    -0.22000
C3430       C  0.96253147  0.56711686  0.98938994    -0.22000
C3431       C  0.50804020  0.58944855  0.63317765    -0.22000
C3432       C  0.97190983  0.59330610  0.63905701    -0.22000
C3433       C  0.57861230  0.61728816  0.01161209    -0.23000
C3434       C  0.58255094  0.61736471  0.54367205    -0.23000
C3435       C  0.88664044  0.61693700  0.02851371    -0.23000
C3436       C  0.88583645  0.61653570  0.56625592    -0.23000
C3437       C  0.53487931  0.60750576  0.97663365    -0.18400
C3438       C  0.92747309  0.61137937  0.98725239    -0.18400
C3439       C  0.92850463  0.60402982  0.60349101    -0.18400
C3440       C  0.54606009  0.60290850  0.58930525    -0.18400
H3441       H  0.50694475  0.54794101  0.99873455     0.14500
H3442       H  0.94732257  0.54962674  0.00157192     0.14500
H3443       H  0.52392825  0.59034153  0.65260684     0.14500
H3444       H  0.95873063  0.59306531  0.66136288     0.14500
H3445       H  0.59544730  0.62802517  0.99458375     0.12800
H3446       H  0.60087658  0.62954264  0.55573662     0.12800
H3447       H  0.86989187  0.62993213  0.01504388     0.12800
H3448       H  0.86869340  0.62597369  0.58217918     0.12800
H3449       H  0.98188225  0.63615991  0.95936150     0.26100
H3450       H  0.98249365  0.60345670  0.56298532     0.26100
C3451       C  0.58076199  0.66852690  0.71510922     0.42400
N3452       N  0.54526468  0.69984578  0.73225807     0.01300
C3453       C  0.93983672  0.79842453  0.65879913    -0.06600
H3454       H  0.57555608  0.81831280  0.64303889     0.06800
C3455       C  0.57685838  0.83188431  0.74700248    -0.06900
Co3456     Co  0.00205481  0.72882441  0.68499282     0.74200
N3457       N  0.53763386  0.78585004  0.65873503    -0.26100
Co3458     Co  0.00510190  0.81072499  0.69153951     0.74100
C3459       C  0.58615556  0.85395999  0.72052307     0.42500
N3460       N  0.55064668  0.77001892  0.79095836     0.00900
N3461       N  0.54278298  0.82923347  0.71107044     0.01000
N3462       N  0.94068130  0.74605678  0.65752234    -0.47000
H3463       H  0.56127596  0.67295866  0.66488787     0.06800
N3464       N  0.53420499  0.75550389  0.65558437     0.01300
N3465       N  0.97478977  0.83168885  0.72451691     0.01000
C3466       C  0.93975399  0.85730797  0.74987331     0.42600
N3467       N  0.54938155  0.73973625  0.78747208    -0.25600
C3468       C  0.94982242  0.67817456  0.70484267    -0.06500
N3469       N  0.56854255  0.68224573  0.74082559    -0.46700
N3470       N  0.95053958  0.85046634  0.72028405    -0.46900
C3471       C  0.94087969  0.66085394  0.73453806     0.42400
N3472       N  0.96634869  0.75712010  0.66961340     0.01300
N3473       N  0.98196253  0.74103440  0.79735855    -0.25600
N3474       N  0.54085012  0.70012214  0.70152339    -0.26100
N3475       N  0.98315214  0.77161588  0.80011116     0.00900
H3476       H  0.95613961  0.70402194  0.82361303     0.06800
H3477       H  0.95922163  0.84126621  0.79780827     0.06800
N3478       N  0.96681388  0.78789213  0.67093385    -0.26100
N3479       N  0.54858644  0.82070930  0.74051531    -0.25800
N3480       N  0.97538026  0.69697293  0.74375367     0.01300
C3481       C  0.57726211  0.76677306  0.62869248     0.42700
C3482       C  0.57001581  0.72645538  0.80657655    -0.07000
N3483       N  0.98046695  0.82630009  0.75479530    -0.25800
H3484       H  0.58689577  0.83006713  0.77020356     0.06800
N3485       N  0.55615683  0.74405409  0.63767649    -0.45200
H3486       H  0.57160691  0.70155200  0.81115710     0.06800
C3487       C  0.94864303  0.75534581  0.83559170     0.42500
C3488       C  0.56130546  0.68012520  0.68892313    -0.06500
Co3489     Co  0.01268489  0.71967121  0.76547074     0.73800
N3490       N  0.57028164  0.77810837  0.81341888    -0.46700
C3491       C  0.92257766  0.77012518  0.64961848     0.42800
N3492       N  0.95808804  0.67378110  0.75723284    -0.46700
Co3493     Co  0.01616259  0.79854155  0.77259858     0.73900
C3494       C  0.95988104  0.84133628  0.77217345    -0.07000
C3495       C  0.56490129  0.79513157  0.64312800    -0.06600
N3496       N  0.97131928  0.69990828  0.71296936    -0.26100
N3497       N  0.56421141  0.84943075  0.69852639    -0.46900
H3498       H  0.93296268  0.82249191  0.65741451     0.06800
C3499       C  0.96106935  0.72870328  0.81900750    -0.07000
Cl3500     Cl  0.00874927  0.76437686  0.72874329    -0.50000
C3501       C  0.58437082  0.75180322  0.82402141     0.42500
H3502       H  0.94389136  0.67296776  0.68088030     0.06700
N3503       N  0.96410056  0.78107668  0.82298531    -0.46700
C3504       C  0.73862265  0.86291120  0.59058725     0.80200
N3505       N  0.70809653  0.85681148  0.59811424    -0.78200
C3506       C  0.69091581  0.87552243  0.61587634     0.82600
N3507       N  0.70553784  0.89943320  0.62968947    -0.78100
C3508       C  0.73689378  0.90506005  0.62571112     0.82700
N3509       N  0.75366533  0.88777148  0.60431735    -0.79800
C3510       C  0.75895571  0.62546056  0.55894863     0.80200
N3511       N  0.77385216  0.61373047  0.58482115    -0.78200
C3512       C  0.76632899  0.58398974  0.59597720     0.82600
N3513       N  0.74381051  0.56729040  0.58194567    -0.78100
C3514       C  0.72745688  0.57965557  0.55826139     0.82700
N3515       N  0.73502732  0.60877983  0.54686879    -0.79800
C3516       C  0.75718415  0.63845605  0.89624403     0.80200
N3517       N  0.73378625  0.62250807  0.91284263    -0.78200
C3518       C  0.72135481  0.59572440  0.90258702     0.82600
N3519       N  0.73228648  0.58458017  0.87508171    -0.78100
C3520       C  0.75532808  0.60011099  0.85746964     0.82700
N3521       N  0.76755877  0.62778877  0.86770202    -0.79800
C3522       C  0.73830898  0.92866823  0.86586089     0.80200
N3523       N  0.75785407  0.90536332  0.87455532    -0.78200
C3524       C  0.75369506  0.89079921  0.90379976     0.82600
N3525       N  0.73056936  0.89976717  0.92348894    -0.78100
C3526       C  0.70955052  0.92020537  0.91386971     0.82700
N3527       N  0.71305960  0.93447530  0.88477324    -0.79800
N3528       N  0.61109610  0.54620013  0.50511786    -0.36700
N3529       N  0.57460717  0.97852050  0.56872077    -0.57200
N3530       N  0.57655559  0.93674226  0.51730876    -0.36700
N3531       N  0.58191244  0.98092386  0.96155491    -0.57200
C3532       C  0.59212949  0.53663417  0.53006988     0.26900
C3533       C  0.59283498  0.54137133  0.98107703     0.26900
C3534       C  0.56668484  0.91803004  0.54269336     0.26900
C3535       C  0.57289590  0.91816375  0.99320188     0.26900
C3536       C  0.59088476  0.50435123  0.57904490     0.35500
C3537       C  0.57906874  0.95259357  0.58662080     0.35500
C3538       C  0.59911098  0.50539517  0.94005594     0.35500
C3539       C  0.58704099  0.95441467  0.94698293     0.35500
C3540       C  0.56292665  0.52831299  0.51975565    -0.22000
C3541       C  0.56274343  0.53179198  0.99035456    -0.22000
C3542       C  0.55779705  0.88896687  0.53205691    -0.22000
C3543       C  0.56323007  0.88800639  0.00224593    -0.22000
C3544       C  0.60228803  0.49479139  0.60798384    -0.23000
C3545       C  0.59434235  0.96073046  0.61397014    -0.23000
C3546       C  0.61175610  0.49358571  0.91283953    -0.23000
C3547       C  0.60209695  0.96155100  0.91768975    -0.23000
C3548       C  0.60318566  0.52999786  0.56049207    -0.18400
C3549       C  0.60697719  0.53476121  0.95192600    -0.18400
C3550       C  0.58906126  0.92564338  0.96414092    -0.18400
C3551       C  0.57660104  0.92236659  0.57423614    -0.18400
H3552       H  0.54321480  0.51868447  0.53391272     0.14500
H3553       H  0.54494743  0.52320656  0.97494761     0.14500
H3554       H  0.55175572  0.86823674  0.54668164     0.14500
H3555       H  0.56246710  0.86810170  0.98725585     0.14500
H3556       H  0.61733022  0.50813907  0.62293626     0.12800
H3557       H  0.60345804  0.94584840  0.63235334     0.12800
H3558       H  0.62536781  0.50615408  0.89418673     0.12800
H3559       H  0.61277160  0.94579311  0.90165809     0.12800
H3560       H  0.63513453  0.55091125  0.50539672     0.26100
H3561       H  0.58842575  0.95825538  0.51802042     0.26100
C3562       C  0.59241146  0.88545360  0.73166179     0.80200
N3563       N  0.61923233  0.90268838  0.72445320    -0.78200
C3564       C  0.62765818  0.92608153  0.74402295     0.82600
N3565       N  0.61126684  0.92948454  0.77177559    -0.78100
C3566       C  0.58468085  0.91236465  0.77831949     0.82700
N3567       N  0.57487040  0.89193523  0.75751798    -0.79800
C3568       C  0.89080296  0.58783269  0.72951006     0.80200
N3569       N  0.90281394  0.61740256  0.72223315    -0.78200
C3570       C  0.92710835  0.62884681  0.73930394     0.82600
N3571       N  0.93666130  0.61201212  0.76491635    -0.78100
C3572       C  0.92474980  0.58302249  0.77207936     0.82700
N3573       N  0.90269284  0.57099219  0.75382959    -0.79800
C3574       C  0.59180603  0.63625473  0.72103661     0.80200
N3575       N  0.57532159  0.62096855  0.74491427    -0.78200
C3576       C  0.58705041  0.59706135  0.76159348     0.82600
N3577       N  0.61542214  0.58665957  0.75329080    -0.78100
C3578       C  0.63228513  0.59978445  0.72822288     0.82700
N3579       N  0.62121201  0.62611832  0.71282714    -0.79800
C3580       C  0.87126996  0.91191965  0.76067314     0.80200
N3581       N  0.89261337  0.89422863  0.74427424    -0.78200
C3582       C  0.91445315  0.87796436  0.76171381     0.82600
N3583       N  0.91478372  0.88072893  0.79367545    -0.78100
C3584       C  0.89402862  0.89763865  0.80925529     0.82700
N3585       N  0.87293575  0.91294148  0.79260606    -0.79800
N3586       N  0.93451372  0.00066779  0.93435522    -0.36700
N3587       N  0.98315983  0.54467458  0.90790986    -0.57200
N3588       N  0.52900859  0.99776479  0.89793282    -0.36700
N3589       N  0.98173885  0.95413984  0.92209500    -0.57200
C3590       C  0.91549535  0.52093589  0.91827340     0.26900
C3591       C  0.91590096  0.97453313  0.93483590     0.26900
C3592       C  0.54215135  0.52381615  0.88113418     0.26900
C3593       C  0.53785570  0.97193945  0.88289761     0.26900
C3594       C  0.95729535  0.56163670  0.91020244     0.35500
C3595       C  0.50775526  0.56591841  0.89732911     0.35500
C3596       C  0.95796184  0.93650266  0.93552242     0.35500
C3597       C  0.50522936  0.93239186  0.91387267     0.35500
C3598       C  0.88533747  0.50997788  0.91378915    -0.22000
C3599       C  0.88548536  0.98252316  0.92860516    -0.22000
C3600       C  0.56156920  0.51171762  0.85813758    -0.22000
C3601       C  0.55637803  0.98074340  0.85634631    -0.22000
C3602       C  0.96494933  0.59266569  0.90219175    -0.23000
C3603       C  0.49781467  0.59632639  0.89538780    -0.23000
C3604       C  0.96713809  0.90584295  0.93909708    -0.23000
C3605       C  0.49782235  0.90238192  0.92532208    -0.23000
C3606       C  0.92804090  0.54860220  0.90341756    -0.18400
C3607       C  0.92689446  0.94417614  0.93019281    -0.18400
C3608       C  0.52908870  0.94050228  0.89146914    -0.18400
C3609       C  0.53459315  0.55571309  0.88143452    -0.18400
H3610       H  0.86688808  0.52238531  0.90230042     0.14500
H3611       H  0.86587801  0.96661203  0.92522312     0.14500
H3612       H  0.57464848  0.52367727  0.83880777     0.14500
H3613       H  0.56714564  0.96636314  0.83908457     0.14500
H3614       H  0.94895643  0.61110997  0.89728966     0.12800
H3615       H  0.51078323  0.61674505  0.88573393     0.12800
H3616       H  0.95238684  0.88567172  0.94601164     0.12800
H3617       H  0.51134068  0.88174714  0.92210833     0.12800
H3618       H  0.95865930  0.00162561  0.93577680     0.26100
H3619       H  0.51550206  0.99830853  0.91881334     0.26100
C3620       C  0.65523675  0.94694187  0.73760936     0.42400
N3621       N  0.68778931  0.98440066  0.74648561     0.01300
C3622       C  0.79579290  0.55516510  0.64097971    -0.06600
H3623       H  0.80180216  0.93495353  0.64910757     0.06800
C3624       C  0.82872488  0.95090453  0.77092818    -0.06900
Co3625     Co  0.72083499  0.51050761  0.69100015     0.74200
N3626       N  0.77304673  0.97058815  0.66943377    -0.26100
Co3627     Co  0.80249933  0.50184883  0.69330206     0.74100
C3628       C  0.84623060  0.93284823  0.74823389     0.42500
N3629       N  0.76250329  0.97982112  0.80105246     0.00900
N3630       N  0.82051833  0.96911691  0.72381012     0.01000
N3631       N  0.74429565  0.56282451  0.64511367    -0.47000
H3632       H  0.66558828  0.95167703  0.68355252     0.06800
N3633       N  0.74271202  0.97548441  0.66830648     0.01300
N3634       N  0.82859004  0.53773407  0.71450432     0.01000
C3635       C  0.85827354  0.57838535  0.72317625     0.42600
N3636       N  0.73215053  0.98313564  0.79894871    -0.25600
C3637       C  0.67711182  0.56975646  0.69713923    -0.06500
N3638       N  0.66733123  0.96429842  0.76042837    -0.46700
N3639       N  0.85049456  0.55721647  0.70129556    -0.46900
C3640       C  0.66448395  0.58754267  0.72387268     0.42400
N3641       N  0.75228337  0.54014883  0.66486042     0.01300
N3642       N  0.74303864  0.55429476  0.79135660    -0.25600
N3643       N  0.68971722  0.98198434  0.71544027    -0.26100
N3644       N  0.77328284  0.55197127  0.79464072     0.00900
H3645       H  0.70866814  0.58293991  0.81243401     0.06800
H3646       H  0.83995249  0.57859478  0.77484681     0.06800
N3647       N  0.78257345  0.53537942  0.66340085    -0.26100
N3648       N  0.81477034  0.97289708  0.75431020    -0.25800
N3649       N  0.69709416  0.55278010  0.74059458     0.01300
C3650       C  0.74851112  0.93389227  0.64115962     0.42700
C3651       C  0.71737099  0.96299891  0.81970942    -0.07000
N3652       N  0.82283281  0.54357758  0.74449411    -0.25800
H3653       H  0.82905530  0.94976318  0.79655847     0.06800
N3654       N  0.72776028  0.95430253  0.65210452    -0.47000
H3655       H  0.69240921  0.96139516  0.82444223     0.06800
C3656       C  0.76013379  0.58973772  0.82470466     0.42500
C3657       C  0.66984213  0.95875646  0.70739430    -0.06500
Co3658     Co  0.71644616  0.51967713  0.77126258     0.73800
N3659       N  0.76960954  0.95825094  0.82290629    -0.46700
C3660       C  0.77030640  0.57392336  0.62899835     0.42800
N3661       N  0.67816101  0.57481036  0.74964079    -0.46700
Co3662     Co  0.79278603  0.01057810  0.77461858     0.73900
C3663       C  0.83878882  0.56940737  0.75138387    -0.07000
C3664       C  0.77905432  0.94468544  0.65285094    -0.06600
N3665       N  0.69717094  0.54904992  0.70981657    -0.26100
N3666       N  0.84045745  0.94592339  0.71894905    -0.46900
H3667       H  0.82012266  0.55579248  0.63349354     0.06800
C3668       C  0.73299751  0.57788641  0.80819205    -0.07000
Cl3669     Cl  0.75882812  0.51120031  0.73266460    -0.50000
C3670       C  0.74215268  0.94620258  0.83528219     0.42500
H3671       H  0.67001782  0.57046219  0.67275345     0.06700
N3672       N  0.78423029  0.57187925  0.81541725    -0.46700
C3673       C  0.90087647  0.90827513  0.84084335    -0.05500
C3674       C  0.89221079  0.89074057  0.86872156    -0.33000
C3675       C  0.89955859  0.90213832  0.89858414     0.36300
C3676       C  0.91576069  0.93106255  0.90020618    -0.05900
C3677       C  0.92387374  0.94831631  0.87201345    -0.32900
C3678       C  0.91614848  0.93743886  0.84273346     0.36200
H3679       H  0.87981585  0.86846562  0.86733128     0.16600
O3680       O  0.89039704  0.88543926  0.92582243    -0.60400
H3681       H  0.93672946  0.97039169  0.87276984     0.16600
O3682       O  0.92460871  0.95504495  0.81579843    -0.60500
H3683       H  0.90834378  0.97092292  0.81372524     0.43600
H3684       H  0.90274421  0.86624130  0.92582106     0.43500
C3685       C  0.54694928  0.57522694  0.85378567    -0.05500
C3686       C  0.52769772  0.57773585  0.82746436    -0.33000
C3687       C  0.54045296  0.58490415  0.79721214     0.36300
C3688       C  0.57296065  0.58899287  0.79293667    -0.05900
C3689       C  0.59194147  0.58910112  0.81948388    -0.32900
C3690       C  0.57908238  0.58244855  0.84990348     0.36200
H3691       H  0.50299485  0.57169213  0.83002800     0.16600
O3692       O  0.52130487  0.58561213  0.77172100    -0.60400
H3693       H  0.61687062  0.59384301  0.81659103     0.16600
O3694       O  0.59827671  0.58031407  0.87524938    -0.60500
H3695       H  0.60961555  0.56068063  0.87282307     0.43600
H3696       H  0.51079249  0.60588283  0.77248944     0.43500
C3697       C  0.92158426  0.55260217  0.86921496    -0.05500
C3698       C  0.94085444  0.53728419  0.84740327    -0.33000
C3699       C  0.94215307  0.54661469  0.81531181     0.36300
C3700       C  0.92428447  0.57158353  0.80501064    -0.05900
C3701       C  0.90307232  0.58493737  0.82611329    -0.32900
C3702       C  0.90136485  0.57529071  0.85804079     0.36200
H3703       H  0.95634439  0.51939533  0.85569467     0.16600
O3704       O  0.96213522  0.53255506  0.79470870    -0.60400
H3705       H  0.88801084  0.60320170  0.81777543     0.16600
O3706       O  0.88080338  0.58896380  0.87821971    -0.60500
H3707       H  0.86075033  0.57712591  0.87638525     0.43600
H3708       H  0.95063955  0.51348812  0.78838075     0.43500
C3709       C  0.56865852  0.91152038  0.80940218    -0.05500
C3710       C  0.53606515  0.91340009  0.81108594    -0.33000
C3711       C  0.52066860  0.91631490  0.84038422     0.36300
C3712       C  0.53812069  0.91719915  0.86812024    -0.05900
C3713       C  0.56928114  0.90835908  0.86675151    -0.32900
C3714       C  0.58494037  0.90612941  0.83742535     0.36200
H3715       H  0.52290571  0.91521115  0.78959707     0.16600
O3716       O  0.48954153  0.92291411  0.84127011    -0.60400
H3717       H  0.58215774  0.90700539  0.88811691     0.16600
O3718       O  0.61629572  0.90056459  0.83638445    -0.60500
H3719       H  0.61765556  0.87772259  0.83399152     0.43600
H3720       H  0.48869400  0.94564199  0.83609839     0.43500
C3721       C  0.62054413  0.91276410  0.96076862    -0.05500
C3722       C  0.62678452  0.89442745  0.93481526    -0.33000
C3723       C  0.65579090  0.89755128  0.91878436     0.36300
C3724       C  0.67918955  0.91755091  0.93017639    -0.05900
C3725       C  0.67502559  0.93054753  0.95965299    -0.32900
C3726       C  0.64563497  0.92896078  0.97471493     0.36200
H3727       H  0.60819096  0.88070698  0.92485958     0.16600
O3728       O  0.66062496  0.88238025  0.89112749    -0.60400
H3729       H  0.69387212  0.94388364  0.96979678     0.16600
O3730       O  0.64090815  0.94608753  0.00108290    -0.60500
H3731       H  0.63600819  0.96736472  0.99318357     0.43600
H3732       H  0.66226876  0.86002627  0.89760987     0.43500
C3733       C  0.69320613  0.58131347  0.91850703    -0.05500
C3734       C  0.69272748  0.54951017  0.92670634    -0.33000
C3735       C  0.66541723  0.53440283  0.93904775     0.36300
C3736       C  0.63735990  0.55088710  0.94188234    -0.05900
C3737       C  0.63847110  0.58328375  0.93554495    -0.32900
C3738       C  0.66620302  0.59857853  0.92407379     0.36200
H3739       H  0.71369030  0.53627547  0.92358241     0.16600
O3740       O  0.66666508  0.50376037  0.94924534    -0.60400
H3741       H  0.61758351  0.59658073  0.93867528     0.16600
O3742       O  0.66616325  0.62999036  0.91655418    -0.60500
H3743       H  0.67026544  0.64030439  0.93669665     0.43600
H3744       H  0.67340800  0.49219807  0.93044943     0.43500
C3745       C  0.69561838  0.56731967  0.55592452    -0.05500
C3746       C  0.69047538  0.53527378  0.55225791    -0.33000
C3747       C  0.66050639  0.52190902  0.55683626     0.36300
C3748       C  0.63548110  0.54075393  0.56553965    -0.05900
C3749       C  0.64101635  0.57223477  0.57070506    -0.32900
C3750       C  0.67069119  0.58576399  0.56573693     0.36200
H3751       H  0.70974566  0.52065684  0.54603163     0.16600
O3752       O  0.65539219  0.49105912  0.55056602    -0.60400
H3753       H  0.62202709  0.58637053  0.57787552     0.16600
O3754       O  0.67526318  0.61682187  0.57150006    -0.60500
H3755       H  0.68081393  0.61735360  0.59410989     0.43600
H3756       H  0.66076569  0.47927218  0.57023377     0.43500
C3757       C  0.65856112  0.87951132  0.60602390    -0.05500
C3758       C  0.63282314  0.87955181  0.62750740    -0.33000
C3759       C  0.60341185  0.88924002  0.61701243     0.36300
C3760       C  0.60048386  0.89986160  0.58517663    -0.05900
C3761       C  0.62537418  0.89578511  0.56368536    -0.32900
C3762       C  0.65418213  0.88663612  0.57366267     0.36200
H3763       H  0.63580082  0.87341135  0.65234190     0.16600
O3764       O  0.57811245  0.88971371  0.63778715    -0.60400
H3765       H  0.62378000  0.90292697  0.53906314     0.16600
O3766       O  0.67910722  0.88923959  0.55228779    -0.60500
H3767       H  0.67289236  0.87761671  0.53348755     0.43600
H3768       H  0.58539315  0.89982015  0.65707990     0.43500
C3769       C  0.92293156  0.64244280  0.97218029    -0.05500
C3770       C  0.93555791  0.66913583  0.98604502    -0.33000
C3771       C  0.93943183  0.69728966  0.96828494     0.36300
C3772       C  0.93159913  0.69846602  0.93617524    -0.05900
C3773       C  0.91763584  0.67216558  0.92299773    -0.32900
C3774       C  0.91262017  0.64455294  0.94116147     0.36200
H3775       H  0.94370127  0.66765935  0.01010006     0.16600
O3776       O  0.95068559  0.72341693  0.98243943    -0.60400
H3777       H  0.90950458  0.67344642  0.89892455     0.16600
O3778       O  0.89798025  0.61943233  0.92842325    -0.60500
H3779       H  0.87589494  0.62012808  0.93602558     0.43600
H3780       H  0.97288392  0.72583709  0.97519840     0.43500
C3781       C  0.54464524  0.63540510  0.95617339    -0.05500
C3782       C  0.55960881  0.63160147  0.92673030    -0.33000
C3783       C  0.57233956  0.65752273  0.90898982     0.36300
C3784       C  0.57065607  0.68765187  0.92101446    -0.05900
C3785       C  0.55541739  0.69155395  0.95030297    -0.32900
C3786       C  0.54206000  0.66577552  0.96767343     0.36200
H3787       H  0.56225219  0.60840352  0.91802470     0.16600
O3788       O  0.58740528  0.65312435  0.88046636    -0.60400
H3789       H  0.55418498  0.71458287  0.95987767     0.16600
O3790       O  0.52803536  0.67015082  0.99674400    -0.60500
H3791       H  0.50693455  0.67766735  0.99214847     0.43600
H3792       H  0.60910049  0.64805158  0.88582670     0.43500
C3793       C  0.91703354  0.62945194  0.62307771    -0.05500
C3794       C  0.93076697  0.65860122  0.61450749    -0.33000
C3795       C  0.91421396  0.68555683  0.61782577     0.36300
C3796       C  0.88423342  0.68398131  0.63268283    -0.05900
C3797       C  0.87188704  0.65529248  0.64521833    -0.32900
C3798       C  0.88808036  0.62773188  0.63993478     0.36200
H3799       H  0.95261593  0.66013452  0.60076675     0.16600
O3800       O  0.92557795  0.71284820  0.60280480    -0.60400
H3801       H  0.84904319  0.65399694  0.65696984     0.16600
O3802       O  0.87430757  0.59927038  0.64832975    -0.60500
H3803       H  0.85744905  0.59633792  0.63307754     0.43600
H3804       H  0.94816797  0.71471587  0.60719840     0.43500
C3805       C  0.60596590  0.67613607  0.61782899    -0.05500
C3806       C  0.57692902  0.68163014  0.60452556    -0.33000
C3807       C  0.55517511  0.65764107  0.60093013     0.36300
C3808       C  0.56319547  0.62662547  0.60749664    -0.05900
C3809       C  0.59186268  0.62061807  0.62188738    -0.32900
C3810       C  0.61321889  0.64542561  0.62754670     0.36200
H3811       H  0.57116137  0.70485574  0.59613321     0.16600
O3812       O  0.52699993  0.66439189  0.58799289    -0.60400
H3813       H  0.59830553  0.59676603  0.62701644     0.16600
O3814       O  0.64151084  0.63908140  0.64036704    -0.60500
H3815       H  0.64333419  0.65240822  0.65892550     0.43600
H3816       H  0.53123429  0.66668027  0.56478405     0.43500
loop_ 
_geom_bond_atom_site_label_1 
_geom_bond_atom_site_label_2 
_geom_bond_distance 
_geom_bond_site_symmetry_2 
_ccdc_geom_bond_type 
C1           N19   1.351       .  A
C1           C38   1.464       .  S
C1          C171   1.468       .  S
N2           N19   1.319       .  A
N2           N24   1.317       .  A
N2         Co516   2.090   1_554  S
C3           N28   1.352       .  A
C3           C41   1.478       .  S
C3           H48   1.080       .  S
H4           C45   1.081       .  S
C5           N29   1.327       .  A
C5            C9   1.458       .  S
C5           H34   1.081       .  S
Co6          N46   2.125       .  S
Co6          N22   2.082       .  S
Co6         N501   2.067       .  S
Co6         N491   2.122       .  S
Co6        Cl527   2.447       .  S
N7           C45   1.351       .  A
N7           N14   1.322       .  A
N7           Co8   2.081   1_554  S
Co8          N11   2.125   1_556  S
Co8         N505   2.117       .  S
Co8         N492   2.085       .  S
Co8         Cl50   2.502       .  S
C9           N47   1.365       .  A
C9          C165   1.506       .  S
N10          N17   1.319       .  A
N10          N40   1.336       .  A
N10         Co43   2.108   1_554  S
N11          N29   1.322       .  A
N11          N47   1.345       .  A
N12          C41   1.353       .  A
N12          N22   1.317       .  A
H13          C38   1.082       .  S
N14          N35   1.321       .  A
N14        Co483   2.113   1_554  S
N15          N33   1.319       .  A
N15          N20   1.329       .  A
N15        Co485   2.096       .  S
C16          N20   1.357       .  A
C16          C44   1.471       .  S
C16         C185   1.468       .  S
N17          C32   1.331       .  A
N17        Co516   2.084   1_554  S
C18          N46   1.358       .  A
C18          C21   1.484       .  S
C18          H52   1.082       .  S
C21          N42   1.344       .  A
C21         C177   1.481       .  S
N22          N28   1.318       .  A
N23          C49   1.335       .  A
N23          N25   1.314       .  A
N23         Co39   2.065       .  S
N24          C38   1.348       .  A
N24        Co483   2.078   1_554  S
N25          N53   1.338       .  A
N25        Co520   2.126       .  S
H26          C49   1.082       .  S
H27          C44   1.081       .  S
N28        Co485   2.118       .  S
N29         Co43   2.101   1_554  S
N30          N42   1.315       .  A
N30          N46   1.316       .  A
N30         Co39   2.063       .  S
C31          N35   1.351       .  A
C31          C45   1.463       .  S
C31          C60   1.476       .  S
C32          C51   1.457       .  S
C32          H36   1.082       .  S
N33          C44   1.329       .  A
N33        Co520   2.090       .  S
C37          N53   1.366       .  A
C37          C49   1.457       .  S
C37          C68   1.491       .  S
Co39        N479   2.078       .  S
Co39        N494   2.084       .  S
Co39       Cl527   2.419       .  S
N40          C51   1.358       .  A
C41          C74   1.474       .  S
Co43        N502   2.120       .  S
Co43        N510   2.095       .  S
Co43        Cl50   2.437       .  S
Cl50       Co483   2.439       .  S
Cl50       Co516   2.421       .  S
C51          C54   1.482       .  S
C54          N55   1.359       .  A
C54          N59   1.377       .  A
N55          C56   1.347       .  A
C56          N57   1.344       .  A
C56         C466   1.472       .  S
N57          C58   1.358       .  A
C58          N59   1.376       .  A
C58         C142   1.490       .  S
C60          N61   1.375       .  A
C60          N65   1.356       .  A
N61          C62   1.374       .  A
C62          N63   1.354       .  A
C62         C152   1.479       .  S
N63          C64   1.343       .  A
C64          N65   1.349       .  A
C64         C457   1.462       .  S
C66          N67   1.373       .  A
C66          N71   1.360       .  A
C66         C162   1.486       .  S
N67          C68   1.373       .  A
C68          N69   1.362       .  A
N69          C70   1.355       .  A
C70          N71   1.352       .  A
C70         C445   1.478       .  S
C72          N73   1.374       .  A
C72          N77   1.358       .  A
C72         C148   1.476       .  S
N73          C74   1.371       .  A
C74          N75   1.350       .  A
N75          C76   1.342       .  A
C76          N77   1.352       .  A
C76         C433   1.453       .  S
N78          C83   1.350       .  A
N78        C1990   1.340       .  A
N78         H110   1.042       .  S
N79          C87   1.343       .  A
N79         C563   1.356       .  A
N80          C85   1.364       .  A
N80        C1992   1.363       .  A
N80         H111   1.038       .  S
N81          C89   1.336       .  A
N81         C565   1.351       .  A
C82        N1986   1.341   1_455  A
C82          C90   1.390   1_455  A
C82          C98   1.401       .  A
C83          C99   1.396       .  A
C83          C91   1.377       .  A
C84        N1988   1.361   1_455  A
C84          C92   1.385       .  A
C84         C101   1.421       .  A
C85         C100   1.427       .  A
C85          C93   1.386       .  A
C86         N556   1.355       .  A
C86          C98   1.403       .  A
C86          C94   1.379       .  A
C87         C101   1.419       .  A
C87          C95   1.395       .  A
C88         N558   1.353       .  A
C88          C96   1.377       .  A
C88          C99   1.399       .  A
C89          C97   1.401       .  A
C89         C100   1.418       .  A
C90         H102   1.066   1_655  S
C90        C1999   1.361       .  A
C91         H103   1.083       .  S
C91        C1998   1.362       .  A
C92         H104   1.083       .  S
C92        C2001   1.375   1_455  A
C93         H105   1.083       .  S
C93        C2000   1.374       .  A
C94         H106   1.083       .  S
C94         C572   1.365       .  A
C95         H107   1.081       .  S
C95         C571   1.364       .  A
C96         H108   1.083       .  S
C96         C574   1.370       .  A
C97         H109   1.081       .  S
C97         C573   1.375       .  A
C98         C442   1.495       .  S
C99         C430   1.469       .  S
C100        C454   1.478       .  S
C101        C469   1.484       .  S
C112        N130   1.354       .  A
C112        C149   1.485       .  S
C112        C235   1.491       .  S
N113        N130   1.319       .  A
N113        N135   1.317       .  A
N113      Co2058   2.090       .  S
C114        N139   1.359       .  A
C114        C152   1.474       .  S
C114        H159   1.081       .  S
H115        C156   1.081       .  S
C116        N140   1.329       .  A
C116        C120   1.473       .  S
C116        H145   1.083       .  S
Co117       N157   2.099       .  S
Co117       N133   2.077       .  S
Co117      N2043   2.132       .  S
Co117      N2033   2.070       .  S
Co117      Cl161   2.465       .  S
N118        C156   1.364       .  A
N118        N125   1.317       .  A
N118      Co2027   2.128       .  S
Co119       N139   2.124       .  S
Co119       N126   2.128       .  S
Co119      N2026   2.136       .  S
Co119      N2030   2.105       .  S
Co119      Cl161   2.496       .  S
C120        N158   1.358       .  A
C120        C223   1.468       .  S
N121        N128   1.312       .  A
N121        N151   1.334       .  A
N121      Co2062   2.102       .  S
N122        N140   1.315       .  A
N122        N158   1.328       .  A
N122      Co2027   2.095       .  S
N123        C152   1.347       .  A
N123        N133   1.312       .  A
H124        C149   1.074       .  S
N125        N146   1.308       .  A
N125      Co2025   2.065       .  S
N126        N144   1.321       .  A
N126        N131   1.347       .  A
C127        N131   1.368       .  A
C127        C155   1.459       .  S
C127        C243   1.511       .  S
N128        C143   1.337       .  A
N128      Co2058   2.074       .  S
C129        N157   1.356       .  A
C129        C132   1.472       .  S
C129        H163   1.082       .  S
C132        N153   1.348       .  A
C132        C231   1.481       .  S
N133        N139   1.323       .  A
N134        C160   1.342       .  A
N134        N136   1.319       .  A
N134       Co150   2.109       .  S
N135        C149   1.357       .  A
N135      Co2025   2.134       .  S
N136        N164   1.328       .  A
N136       Co154   2.088       .  S
H137        C160   1.082       .  S
H138        C155   1.082       .  S
N140      Co2062   2.080       .  S
N141        N153   1.319       .  A
N141        N157   1.318       .  A
N141       Co150   2.087       .  S
C142        N146   1.346       .  A
C142        C156   1.484       .  S
C143        C162   1.463       .  S
C143        H147   1.082       .  S
N144        C155   1.326       .  A
N144       Co154   2.101       .  S
C148        N164   1.351       .  A
C148        C160   1.469       .  S
Co150      N2021   2.096       .  S
Co150      N2036   2.072       .  S
Co150      Cl161   2.432       .  S
N151        C162   1.360       .  A
Co154      N2029   2.107       .  S
Co154      N2048   2.071       .  S
Co154      Cl161   2.426       .  S
C165        N166   1.356       .  A
C165        N170   1.384       .  A
N166        C167   1.344       .  A
C167        N168   1.344       .  A
C167        C418   1.472       .  S
N168        C169   1.360       .  A
C169        N170   1.387       .  A
C169        C311   1.495       .  S
C171        N172   1.371       .  A
C171        N176   1.355       .  A
N172        C173   1.370       .  A
C173        N174   1.352       .  A
C173        C321   1.467       .  S
N174        C175   1.340       .  A
C175        N176   1.347       .  A
C175        C406   1.460       .  S
C177        N178   1.360       .  A
C177        N182   1.373       .  A
N178        C179   1.347       .  A
C179        N180   1.352       .  A
C179        C394   1.476       .  S
N180        C181   1.361       .  A
C181        N182   1.374       .  A
C181        C317   1.486       .  S
C183        N184   1.370       .  A
C183        N188   1.360       .  A
C183        C331   1.471       .  S
N184        C185   1.368       .  A
C185        N186   1.349       .  A
N186        C187   1.335       .  A
C187        N188   1.351       .  A
C187        C385   1.451       .  S
N189        C193   1.354       .  A
N189        C671   1.340   1_554  A
N189        H221   1.044       .  S
N190        C198   1.342       .  A
N190       C1151   1.348       .  A
N191        C195   1.363       .  A
N191        C673   1.355   1_554  A
N191        H222   1.042       .  S
N192        C200   1.336       .  A
N192       C1153   1.358       .  A
C193        C201   1.381       .  A
C193        C209   1.403       .  A
C194        N666   1.342       .  A
C194        C210   1.398       .  A
C194        C202   1.381       .  A
C195        C203   1.386       .  A
C195        C212   1.426       .  A
C196        N668   1.355       .  A
C196        C211   1.411       .  A
C196        C204   1.382       .  A
C197       N1144   1.350   1_545  A
C197        C209   1.404       .  A
C197        C205   1.380   1_545  A
C198        C212   1.416       .  A
C198        C206   1.392       .  A
C199       N1146   1.357   1_545  A
C199        C207   1.375   1_545  A
C199        C210   1.410       .  A
C200        C208   1.396       .  A
C200        C211   1.414       .  A
C201        H213   1.082       .  S
C201        C679   1.370   1_554  A
C202        H214   1.083       .  S
C202        C678   1.370       .  A
C203        H215   1.082       .  S
C203        C681   1.378       .  A
C204        H216   1.083       .  S
C204        C680   1.378       .  A
C205        H217   1.083   1_565  S
C205       C1160   1.372       .  A
C206        H218   1.079       .  S
C206       C1159   1.375       .  A
C207        H219   1.082   1_565  S
C207       C1162   1.369       .  A
C208        H220   1.078       .  S
C208       C1161   1.368       .  A
C209        C409   1.473       .  S
C210        C397   1.499       .  S
C211        C382   1.477       .  S
C212        C421   1.496       .  S
C223        N224   1.366       .  A
C223        N228   1.347       .  A
N224        C225   1.371       .  A
C225        N226   1.367       .  A
C225        C281   1.477       .  S
N226        C227   1.357       .  A
C227        N228   1.333       .  A
C227        C370   1.468       .  S
C229        N230   1.374       .  A
C229        N234   1.354       .  A
C229        C296   1.475       .  S
N230        C231   1.373       .  A
C231        N232   1.358       .  A
N232        C233   1.347       .  A
C233        N234   1.340       .  A
C233        C361   1.458       .  S
C235        N236   1.350       .  A
C235        N240   1.384       .  A
N236        C237   1.340       .  A
C237        N238   1.349       .  A
C237        C349   1.464       .  S
N238        C239   1.359       .  A
C239        N240   1.384       .  A
C239        C301   1.500       .  S
C241        N242   1.393       .  A
C241        N246   1.358       .  A
C241        C289   1.513       .  S
N242        C243   1.393       .  A
C243        N244   1.358       .  A
N244        C245   1.338       .  A
C245        N246   1.339       .  A
C245        C334   1.465       .  S
N247        C252   1.355       .  A
N247       C1205   1.351       .  A
N247        H279   1.039       .  S
N248        C255   1.347       .  A
N248       C2164   1.343       .  A
N249        C254   1.355       .  A
N249       C1207   1.359       .  A
N249        H280   1.041       .  S
N250        C257   1.350       .  A
N250       C2166   1.345       .  A
C251       N1201   1.353       .  A
C251        C259   1.382       .  A
C251        C267   1.408       .  A
C252        C268   1.418       .  A
C252        C260   1.390       .  A
C253       N1203   1.360   1_545  A
C253        C261   1.386       .  A
C253        C270   1.418       .  A
C254        C269   1.421       .  A
C254        C262   1.388       .  A
C255        C267   1.397       .  A
C255        C263   1.386       .  A
C256       N2156   1.346   1_455  A
C256        C270   1.407       .  A
C256        C264   1.385   1_455  A
C257        C265   1.386       .  A
C257        C268   1.406       .  A
C258       N2158   1.346       .  A
C258        C266   1.382       .  A
C258        C269   1.404   1_655  A
C259        H271   1.082       .  S
C259       C1214   1.374   1_545  A
C260        H272   1.083       .  S
C260       C1213   1.371       .  A
C261        H273   1.079       .  S
C261       C1216   1.347   1_545  A
C262        H274   1.069       .  S
C262       C1215   1.349       .  A
C263        H275   1.083       .  S
C263       C2172   1.368       .  A
C264        H276   1.082   1_655  S
C264       C2171   1.368       .  A
C265        H277   1.082       .  S
C265       C2174   1.377       .  A
C266        H278   1.082   1_655  S
C266       C2173   1.377       .  A
C267        C358   1.490       .  S
C268        C337   1.491       .  S
C269        C373   1.487       .  S
C270        C346   1.487       .  S
C281        N299   1.348       .  A
C281        C318   1.469       .  S
N282        N299   1.322       .  A
N282        N304   1.319       .  A
N282      Co1273   2.083       .  S
C283        N308   1.351       .  A
C283        C321   1.474       .  S
C283        H328   1.080       .  S
H284        C325   1.081       .  S
C285        N309   1.326       .  A
C285        C289   1.460       .  S
C285        H314   1.082       .  S
Co286       N326   2.138       .  S
Co286       N302   2.078       .  S
Co286      N1258   2.095   1_545  S
Co286      N1248   2.116   1_545  S
Co286      Cl330   2.428       .  S
N287        C325   1.363       .  A
N287        N294   1.324       .  A
N287      Co1242   2.120       .  S
Co288       N308   2.112       .  S
Co288       N295   2.113       .  S
Co288      N1241   2.128   1_545  S
Co288      N1245   2.136   1_545  S
Co288      Cl330   2.526       .  S
C289        N327   1.369       .  A
N290        N297   1.319       .  A
N290        N320   1.330       .  A
N290       Co323   2.091       .  S
N291        N309   1.322       .  A
N291        N327   1.348       .  A
N291      Co1242   2.135       .  S
N292        C321   1.350       .  A
N292        N302   1.314       .  A
H293        C318   1.082       .  S
N294        N315   1.318       .  A
N294      Co1240   2.107       .  S
N295        N313   1.319       .  A
N295        N300   1.333       .  A
C296        N300   1.361       .  A
C296        C324   1.464       .  S
N297        C312   1.336       .  A
N297      Co1273   2.086       .  S
C298        N326   1.361       .  A
C298        C301   1.486       .  S
C298        H332   1.082       .  S
C301        N322   1.353       .  A
N302        N308   1.320       .  A
N303        C329   1.335       .  A
N303        N305   1.314       .  A
N303       Co319   2.067       .  S
N304        C318   1.350       .  A
N304      Co1240   2.104       .  S
N305        N333   1.335       .  A
N305      Co1277   2.118       .  S
H306        C329   1.082       .  S
H307        C324   1.082       .  S
N309       Co323   2.100       .  S
N310        N322   1.322       .  A
N310        N326   1.316       .  A
N310       Co319   2.084       .  S
C311        N315   1.349       .  A
C311        C325   1.479       .  S
C312        C331   1.457       .  S
C312        H316   1.082       .  S
N313        C324   1.328       .  A
N313      Co1277   2.080       .  S
C317        N333   1.362       .  A
C317        C329   1.461       .  S
Co319      N1236   2.071   1_545  S
Co319      N1251   2.088   1_545  S
Co319      Cl330   2.448       .  S
N320        C331   1.354       .  A
Co323      N1259   2.114       .  S
Co323      N1267   2.087       .  S
Co323     Cl1284   2.433       .  S
Cl330     Co1277   2.416       .  S
C334        C335   1.408       .  A
C334        C339   1.401       .  A
C335        H340   1.083       .  S
C335        C336   1.413       .  A
C336        C337   1.409       .  A
C336        O341   1.370       .  S
C337        C338   1.402       .  A
C338        H342   1.084       .  S
C338        C339   1.382       .  A
C339        O343   1.374       .  S
O341        H345   0.991       .  S
O343        H344   0.992       .  S
C346        C347   1.405       .  A
C346        C351   1.407       .  A
C347        H352   1.082       .  S
C347        C348   1.393       .  A
C348        C349   1.403       .  A
C348        O353   1.373       .  S
C349        C350   1.405       .  A
C350        H354   1.084       .  S
C350        C351   1.400       .  A
C351        O355   1.371       .  S
O353        H357   0.992       .  S
O355        H356   0.992       .  S
C358        C359   1.413       .  A
C358        C363   1.402       .  A
C359        H364   1.082       .  S
C359        C360   1.395       .  A
C360        C361   1.398       .  A
C360        O365   1.372       .  S
C361        C362   1.402       .  A
C362        H366   1.084       .  S
C362        C363   1.396       .  A
C363        O367   1.365       .  S
O365        H369   0.991       .  S
O367        H368   0.991       .  S
C370        C371   1.406       .  A
C370        C375   1.407       .  A
C371        H376   1.084       .  S
C371        C372   1.397       .  A
C372        C373   1.406       .  A
C372        O377   1.370   1_455  S
C373        C374   1.399       .  A
C374        H378   1.069       .  S
C374        C375   1.402       .  A
C375        O379   1.371       .  S
O377        H381   0.992       .  S
O379        H380   0.992       .  S
C382        C383   1.397       .  A
C382        C387   1.417       .  A
C383        H388   1.081       .  S
C383        C384   1.397       .  A
C384        C385   1.408       .  A
C384        O389   1.372       .  S
C385        C386   1.391       .  A
C386        H390   1.084       .  S
C386        C387   1.391       .  A
C387        O391   1.371       .  S
O389        H393   0.991       .  S
O391        H392   0.989       .  S
C394        C395   1.393       .  A
C394        C399   1.412       .  A
C395        H400   1.084       .  S
C395        C396   1.398       .  A
C396        C397   1.415       .  A
C396        O401   1.368       .  S
C397        C398   1.404       .  A
C398        H402   1.083       .  S
C398        C399   1.407       .  A
C399        O403   1.371       .  S
O401        H405   0.992   1_545  S
O403        H404   0.992       .  S
C406        C407   1.401       .  A
C406        C411   1.410       .  A
C407        H412   1.084       .  S
C407        C408   1.396       .  A
C408        C409   1.410       .  A
C408        O413   1.372   1_545  S
C409        C410   1.390       .  A
C410        H414   1.070       .  S
C410        C411   1.389       .  A
C411        O415   1.372       .  S
O413        H417   0.992       .  S
O415        H416   0.992       .  S
C418        C419   1.409       .  A
C418        C423   1.405       .  A
C419        H424   1.083       .  S
C419        C420   1.418       .  A
C420        C421   1.413       .  A
C420        O425   1.373       .  S
C421        C422   1.396       .  A
C422        H426   1.073       .  S
C422        C423   1.377       .  A
C423        O427   1.376       .  S
O425        H429   0.992       .  S
O427        H428   0.992       .  S
C430        C431   1.406       .  A
C430        C435   1.393       .  A
C431        H436   1.084       .  S
C431        C432   1.397       .  A
C432        C433   1.402       .  A
C432        O437   1.371       .  S
C433        C434   1.404       .  A
C434        H438   1.084       .  S
C434        C435   1.393       .  A
C435        O439   1.367       .  S
O437        H441   0.992       .  S
O439        H440   0.992       .  S
C442        C443   1.400       .  A
C442        C447   1.415       .  A
C443        H448   1.081       .  S
C443        C444   1.405       .  A
C444        C445   1.410       .  A
C444        O449   1.371       .  S
C445        C446   1.400       .  A
C446        H450   1.084       .  S
C446        C447   1.401       .  A
C447        O451   1.372       .  S
O449        H453   0.992       .  S
O451        H452   0.991       .  S
C454        C455   1.397       .  A
C454        C459   1.408       .  A
C455        H460   1.086       .  S
C455        C456   1.379       .  A
C456        C457   1.410       .  A
C456        O461   1.375       .  S
C457        C458   1.403       .  A
C458        H462   1.083       .  S
C458        C459   1.408       .  A
C459        O463   1.368       .  S
O461        H465   0.992       .  S
O463        H464   0.990       .  S
C466        C467   1.404       .  A
C466        C471   1.408       .  A
C467        H472   1.083       .  S
C467        C468   1.385       .  A
C468        C469   1.404       .  A
C468        O473   1.374       .  S
C469        C470   1.410       .  A
C470        H474   1.082       .  S
C470        C471   1.411       .  A
C471        O475   1.372       .  S
O473        H477   0.991       .  S
O475        H476   0.991       .  S
C478        N496   1.346       .  A
C478        C515   1.461       .  S
C478        C648   1.455       .  S
N479        N496   1.316       .  A
N479        N501   1.317       .  A
C480        N505   1.353       .  A
C480        C518   1.480       .  S
C480        H525   1.081       .  S
H481        C522   1.081       .  S
C482        N506   1.325       .  A
C482        C486   1.458       .  S
C482        H511   1.081       .  S
Co483       N523   2.118       .  S
Co483       N499   2.080       .  S
N484        C522   1.354       .  A
N484        N491   1.322       .  A
N484       Co485   2.099       .  S
Co485       N488   2.120       .  S
Co485      Cl527   2.500       .  S
C486        N524   1.364       .  A
C486        C642   1.504       .  S
N487        N494   1.319       .  A
N487        N517   1.336       .  A
N487       Co520   2.108       .  S
N488        N506   1.323       .  A
N488        N524   1.345       .  A
N489        C518   1.352       .  A
N489        N499   1.316       .  A
H490        C515   1.082       .  S
N491        N512   1.325       .  A
N492        N510   1.318       .  A
N492        N497   1.328       .  A
C493        N497   1.355       .  A
C493        C521   1.475       .  S
C493        C662   1.465       .  S
N494        C509   1.333       .  A
C495        N523   1.356       .  A
C495        C498   1.482       .  S
C495        H529   1.082       .  S
C498        N519   1.347       .  A
C498        C654   1.480       .  S
N499        N505   1.317       .  A
N500        C526   1.333       .  A
N500        N502   1.313       .  A
N500       Co516   2.064       .  S
N501        C515   1.345       .  A
N502        N530   1.336       .  A
H503        C526   1.082       .  S
H504        C521   1.081       .  S
N506       Co520   2.099       .  S
N507        N519   1.317       .  A
N507        N523   1.315       .  A
N507       Co516   2.067       .  S
C508        N512   1.354       .  A
C508        C522   1.469       .  S
C508        C537   1.489       .  S
C509        C528   1.458       .  S
C509        H513   1.082       .  S
N510        C521   1.331       .  A
C514        N530   1.365       .  A
C514        C526   1.456       .  S
C514        C545   1.486       .  S
N517        C528   1.358       .  A
C518        C551   1.474       .  S
Co520      Cl527   2.438       .  S
C528        C531   1.485       .  S
C531        N532   1.360       .  A
C531        N536   1.379       .  A
N532        C533   1.348       .  A
C533        N534   1.345       .  A
C533        C943   1.474       .  S
N534        C535   1.358       .  A
C535        N536   1.377       .  A
C535        C619   1.494       .  S
C537        N538   1.378       .  A
C537        N542   1.359       .  A
N538        C539   1.377       .  A
C539        N540   1.355       .  A
C539        C629   1.487       .  S
N540        C541   1.344       .  A
C541        N542   1.352       .  A
C541        C934   1.469       .  S
C543        N544   1.372       .  A
C543        N548   1.359       .  A
C543        C639   1.482       .  S
N544        C545   1.372       .  A
C545        N546   1.362       .  A
N546        C547   1.354       .  A
C547        N548   1.351       .  A
C547        C922   1.476       .  S
C549        N550   1.374       .  A
C549        N554   1.362       .  A
C549        C625   1.484       .  S
N550        C551   1.371       .  A
C551        N552   1.350       .  A
N552        C553   1.341       .  A
C553        N554   1.357       .  A
C553        C910   1.463       .  S
N555        C560   1.350       .  A
N555       C2467   1.341       .  A
N555        H587   1.043       .  S
N556        C564   1.342       .  A
N557        C562   1.362       .  A
N557       C2469   1.360       .  A
N557        H588   1.041       .  S
N558        C566   1.339       .  A
C559       N2463   1.340   1_455  A
C559        C567   1.389   1_455  A
C559        C575   1.400       .  A
C560        C576   1.394       .  A
C560        C568   1.379       .  A
C561       N2465   1.362   1_455  A
C561        C569   1.385   1_455  A
C561        C578   1.423       .  A
C562        C577   1.424       .  A
C562        C570   1.386       .  A
C563        C575   1.403   1_554  A
C563        C571   1.379       .  A
C564        C578   1.418       .  A
C564        C572   1.395       .  A
C565        C573   1.375       .  A
C565        C576   1.397   1_554  A
C566        C574   1.399       .  A
C566        C577   1.420       .  A
C567        H579   1.065   1_655  S
C567       C2476   1.362       .  A
C568        H580   1.083   1_556  S
C568       C2475   1.359       .  A
C569        H581   1.083   1_655  S
C569       C2478   1.376       .  A
C570        H582   1.083       .  S
C570       C2477   1.377       .  A
C571        H583   1.083   1_554  S
C572        H584   1.080       .  S
C573        H585   1.083       .  S
C574        H586   1.079       .  S
C575        C919   1.494       .  S
C576        C907   1.472       .  S
C577        C931   1.480       .  S
C578        C946   1.485       .  S
C589        N607   1.355       .  A
C589        C626   1.487       .  S
C589        C712   1.496       .  S
N590        N607   1.320       .  A
N590        N612   1.316       .  A
N590      Co2535   2.089       .  S
C591        N616   1.363       .  A
C591        C629   1.479       .  S
C591        H636   1.081       .  S
H592        C633   1.081       .  S
C593        N617   1.327       .  A
C593        C597   1.469       .  S
C593        H622   1.083       .  S
Co594      N2520   2.135       .  S
Co594      N2510   2.068       .  S
Co594       N634   2.088       .  S
Co594       N610   2.080       .  S
Co594      Cl638   2.461       .  S
N595        C633   1.365       .  A
N595        N602   1.318       .  A
N595      Co2504   2.136       .  S
Co596      N2503   2.139       .  S
Co596      N2507   2.095       .  S
Co596       N616   2.124       .  S
Co596       N603   2.123       .  S
Co596      Cl638   2.499       .  S
C597        N635   1.360       .  A
C597        C700   1.472       .  S
N598        N605   1.312       .  A
N598        N628   1.333       .  A
N598      Co2539   2.098       .  S
N599        N617   1.314       .  A
N599        N635   1.330       .  A
N599      Co2504   2.099       .  S
N600        C629   1.346       .  A
N600        N610   1.310       .  A
H601        C626   1.072       .  S
N602        N623   1.308       .  A
N602      Co2502   2.068       .  S
N603        N621   1.321       .  A
N603        N608   1.346       .  A
C604        N608   1.366       .  A
C604        C632   1.457       .  S
C604        C720   1.505       .  S
N605        C620   1.336       .  A
N605      Co2535   2.072       .  S
C606        N634   1.352       .  A
C606        C609   1.469       .  S
C606        H640   1.081       .  S
C609        N630   1.348       .  A
C609        C708   1.475       .  S
N610        N616   1.322       .  A
N611        C637   1.343       .  A
N611        N613   1.319       .  A
N611       Co627   2.104       .  S
N612        C626   1.358       .  A
N612      Co2502   2.140       .  S
N613        N641   1.331       .  A
N613       Co631   2.102       .  S
H614        C637   1.082       .  S
H615        C632   1.081       .  S
N617      Co2539   2.073       .  S
N618        N630   1.317       .  A
N618        N634   1.317       .  A
N618       Co627   2.084       .  S
C619        N623   1.346       .  A
C619        C633   1.487       .  S
C620        C639   1.463       .  S
C620        H624   1.082       .  S
N621        C632   1.326       .  A
N621       Co631   2.097       .  S
C625        N641   1.355       .  A
C625        C637   1.467       .  S
Co627      N2498   2.086       .  S
Co627      N2513   2.073       .  S
Co627      Cl638   2.427       .  S
N628        C639   1.359       .  A
Co631      N2506   2.101       .  S
Co631      N2525   2.076       .  S
Co631      Cl638   2.420       .  S
C642        N643   1.354       .  A
C642        N647   1.384       .  A
N643        C644   1.342       .  A
C644        N645   1.346       .  A
C644        C895   1.471       .  S
N645        C646   1.361       .  A
C646        N647   1.387       .  A
C646        C788   1.497       .  S
C648        N649   1.364       .  A
C648        N653   1.356       .  A
N649        C650   1.363       .  A
C650        N651   1.353       .  A
C650        C798   1.455       .  S
N651        C652   1.340       .  A
C652        N653   1.347       .  A
C652        C883   1.462       .  S
C654        N655   1.357       .  A
C654        N659   1.373       .  A
N655        C656   1.346       .  A
C656        N657   1.352       .  A
C656        C871   1.473       .  S
N657        C658   1.360       .  A
C658        N659   1.375       .  A
C658        C794   1.485       .  S
C660        N661   1.371       .  A
C660        N665   1.361       .  A
C660        C808   1.474       .  S
N661        C662   1.367       .  A
C662        N663   1.347       .  A
N663        C664   1.333       .  A
C664        N665   1.353       .  A
C664        C862   1.451       .  S
N666        C670   1.354       .  A
N666        H698   1.045       .  S
N667       C1628   1.349       .  A
N667        C675   1.342       .  A
N668        C672   1.363       .  A
N668        H699   1.040       .  S
N669       C1630   1.355       .  A
N669        C677   1.334       .  A
C670        C678   1.381       .  A
C670        C686   1.403       .  A
C671        C687   1.398       .  A
C671        C679   1.382       .  A
C672        C680   1.387       .  A
C672        C689   1.428       .  A
C673        C688   1.411       .  A
C673        C681   1.381   1_556  A
C674       N1621   1.350       .  A
C674        C686   1.406   1_565  A
C674        C682   1.381       .  A
C675        C689   1.418       .  A
C675        C683   1.394       .  A
C676       N1623   1.355   1_545  A
C676        C684   1.375   1_545  A
C676        C687   1.406       .  A
C677        C685   1.397       .  A
C677        C688   1.412       .  A
C678        H690   1.082       .  S
C679        H691   1.083       .  S
C680        H692   1.083       .  S
C681        H693   1.082   1_554  S
C682        H694   1.083   1_565  S
C682       C1637   1.373       .  A
C683        H695   1.078       .  S
C683       C1636   1.373       .  A
C684        H696   1.082   1_565  S
C684       C1639   1.369       .  A
C685        H697   1.079       .  S
C685       C1638   1.371       .  A
C686        C886   1.475       .  S
C687        C874   1.496       .  S
C688        C859   1.477       .  S
C689        C898   1.494       .  S
C700        N701   1.367       .  A
C700        N705   1.350       .  A
N701        C702   1.372       .  A
C702        N703   1.365       .  A
C702        C758   1.476       .  S
N703        C704   1.354       .  A
C704        N705   1.335       .  A
C704        C847   1.466       .  S
C706        N707   1.373       .  A
C706        N711   1.353       .  A
C706        C773   1.472       .  S
N707        C708   1.372       .  A
C708        N709   1.357       .  A
N709        C710   1.346       .  A
C710        N711   1.341       .  A
C710        C838   1.456       .  S
C712        N713   1.348       .  A
C712        N717   1.386       .  A
N713        C714   1.339       .  A
C714        N715   1.349       .  A
C714        C826   1.464       .  S
N715        C716   1.359       .  A
C716        N717   1.387       .  A
C716        C778   1.504       .  S
C718        N719   1.390       .  A
C718        N723   1.357       .  A
C718        C766   1.510       .  S
N719        C720   1.391       .  A
C720        N721   1.359       .  A
N721        C722   1.338       .  A
C722        N723   1.338       .  A
C722        C811   1.464       .  S
N724        C729   1.355       .  A
N724       C1682   1.353       .  A
N724        H756   1.039       .  S
N725        C732   1.346       .  A
N725       C2641   1.346       .  A
N726        C731   1.356       .  A
N726       C1684   1.360       .  A
N726        H757   1.041       .  S
N727        C734   1.350       .  A
N727       C2643   1.345       .  A
C728       N1678   1.354   1_545  A
C728        C736   1.382       .  A
C728        C744   1.407       .  A
C729        C745   1.419       .  A
C729        C737   1.390       .  A
C730       N1680   1.359       .  A
C730        C738   1.387       .  A
C730        C747   1.419       .  A
C731        C746   1.421       .  A
C731        C739   1.388       .  A
C732        C744   1.397       .  A
C732        C740   1.386       .  A
C733       N2633   1.346   1_455  A
C733        C747   1.408       .  A
C733        C741   1.385   1_455  A
C734        C742   1.387       .  A
C734        C745   1.405       .  A
C735       N2635   1.345   1_455  A
C735        C743   1.383   1_455  A
C735        C746   1.403       .  A
C736        H748   1.083       .  S
C736       C1691   1.373   1_545  A
C737        H749   1.083       .  S
C737       C1690   1.372       .  A
C738        H750   1.078       .  S
C738       C1693   1.346   1_545  A
C739        H751   1.072       .  S
C739       C1692   1.345       .  A
C740        H752   1.082       .  S
C740       C2649   1.370       .  A
C741        H753   1.082   1_655  S
C741       C2648   1.369       .  A
C742        H754   1.082       .  S
C742       C2651   1.376       .  A
C743        H755   1.083   1_655  S
C743       C2650   1.376       .  A
C744        C835   1.486       .  S
C745        C814   1.491       .  S
C746        C850   1.485       .  S
C747        C823   1.486       .  S
C758        N776   1.348       .  A
C758        C795   1.469       .  S
N759        N776   1.321       .  A
N759        N781   1.319       .  A
N759      Co1750   2.087       .  S
C760        N785   1.345       .  A
C760        C798   1.467       .  S
C760        H805   1.079       .  S
H761        C802   1.081       .  S
C762        N786   1.324       .  A
C762        C766   1.457       .  S
C762        H791   1.082       .  S
Co763      N1735   2.100   1_545  S
Co763      N1725   2.124   1_545  S
Co763       N803   2.139       .  S
Co763       N779   2.076       .  S
Co763      Cl807   2.431       .  S
N764        C802   1.363       .  A
N764        N771   1.325       .  A
N764      Co1719   2.123       .  S
Co765      N1718   2.120   1_545  S
Co765      N1722   2.119   1_545  S
Co765       N785   2.090       .  S
Co765       N772   2.114       .  S
Co765      Cl807   2.520       .  S
C766        N804   1.369       .  A
N767        N774   1.319       .  A
N767        N797   1.330       .  A
N767       Co800   2.094       .  S
N768        N786   1.322       .  A
N768        N804   1.348       .  A
N768      Co1719   2.137       .  S
N769        C798   1.350       .  A
N769        N779   1.312       .  A
H770        C795   1.082       .  S
N771        N792   1.320       .  A
N771      Co1717   2.116       .  S
N772        N790   1.319       .  A
N772        N777   1.332       .  A
C773        N777   1.360       .  A
C773        C801   1.464       .  S
N774        C789   1.339       .  A
N774      Co1750   2.091       .  S
C775        N803   1.362       .  A
C775        C778   1.487       .  S
C775        H809   1.082       .  S
C778        N799   1.355       .  A
N779        N785   1.319       .  A
N780        C806   1.336       .  A
N780        N782   1.315       .  A
N780       Co796   2.073       .  S
N781        C795   1.351       .  A
N781      Co1717   2.099       .  S
N782        N810   1.334       .  A
N782      Co1754   2.116       .  S
H783        C806   1.082       .  S
H784        C801   1.082       .  S
N786       Co800   2.090       .  S
N787        N799   1.323       .  A
N787        N803   1.315       .  A
N787       Co796   2.089       .  S
C788        N792   1.350       .  A
C788        C802   1.479       .  S
C789        C808   1.459       .  S
C789        H793   1.082       .  S
N790        C801   1.330       .  A
N790      Co1754   2.079       .  S
C794        N810   1.362       .  A
C794        C806   1.462       .  S
Co796      N1713   2.080   1_545  S
Co796      N1728   2.089   1_545  S
Co796      Cl807   2.446       .  S
N797        C808   1.353       .  A
Co800      N1736   2.108       .  S
Co800      N1744   2.086       .  S
Co800     Cl1761   2.427       .  S
Cl807     Co1754   2.422       .  S
C811        C812   1.408       .  A
C811        C816   1.400       .  A
C812        H817   1.083       .  S
C812        C813   1.413       .  A
C813        C814   1.408       .  A
C813        O818   1.371       .  S
C814        C815   1.403       .  A
C815        H819   1.082       .  S
C815        C816   1.381       .  A
C816        O820   1.373       .  S
O818        H822   0.992       .  S
O820        H821   0.992       .  S
C823        C824   1.405       .  A
C823        C828   1.408       .  A
C824        H829   1.082       .  S
C824        C825   1.392       .  A
C825        C826   1.405       .  A
C825        O830   1.373       .  S
C826        C827   1.405       .  A
C827        H831   1.084       .  S
C827        C828   1.400       .  A
C828        O832   1.372       .  S
O830        H834   0.992       .  S
O832        H833   0.992       .  S
C835        C836   1.412       .  A
C835        C840   1.401       .  A
C836        H841   1.083       .  S
C836        C837   1.397       .  A
C837        C838   1.399       .  A
C837        O842   1.371       .  S
C838        C839   1.401       .  A
C839        H843   1.084       .  S
C839        C840   1.393       .  A
C840        O844   1.364       .  S
O842        H846   0.992       .  S
O844        H845   0.992       .  S
C847        C848   1.400       .  A
C847        C852   1.408       .  A
C848        H853   1.084       .  S
C848        C849   1.395       .  A
C849        C850   1.410       .  A
C849        O854   1.371   1_455  S
C850        C851   1.401       .  A
C851        H855   1.074       .  S
C851        C852   1.402       .  A
C852        O856   1.371       .  S
O854        H858   0.993       .  S
O856        H857   0.991       .  S
C859        C860   1.398       .  A
C859        C864   1.418       .  A
C860        H865   1.081       .  S
C860        C861   1.398       .  A
C861        C862   1.409       .  A
C861        O866   1.373       .  S
C862        C863   1.391       .  A
C863        H867   1.084       .  S
C863        C864   1.391       .  A
C864        O868   1.371   1_556  S
O866        H870   0.992       .  S
O868        H869   0.989   1_554  S
C871        C872   1.395       .  A
C871        C876   1.411       .  A
C872        H877   1.084       .  S
C872        C873   1.399       .  A
C873        C874   1.417       .  A
C873        O878   1.369       .  S
C874        C875   1.402       .  A
C875        H879   1.084       .  S
C875        C876   1.403       .  A
C876        O880   1.372       .  S
O878        H882   0.992   1_545  S
O880        H881   0.992       .  S
C883        C884   1.401       .  A
C883        C888   1.410       .  A
C884        H889   1.084       .  S
C884        C885   1.396       .  A
C885        C886   1.412       .  A
C885        O890   1.372   1_545  S
C886        C887   1.393       .  A
C887        H891   1.074       .  S
C887        C888   1.391       .  A
C888        O892   1.372       .  S
O890        H894   0.992       .  S
O892        H893   0.992       .  S
C895        C896   1.407       .  A
C895        C900   1.407       .  A
C896        H901   1.083       .  S
C896        C897   1.416       .  A
C897        C898   1.413       .  A
C897        O902   1.373       .  S
C898        C899   1.397       .  A
C899        H903   1.077       .  S
C899        C900   1.380       .  A
C900        O904   1.376       .  S
O902        H906   0.992       .  S
O904        H905   0.992       .  S
C907        C908   1.406       .  A
C907        C912   1.393       .  A
C908        H913   1.084   1_556  S
C908        C909   1.401       .  A
C909        C910   1.408       .  A
C909        O914   1.372       .  S
C910        C911   1.403       .  A
C911        H915   1.084       .  S
C911        C912   1.395       .  A
C912        O916   1.366       .  S
O914        H918   0.992       .  S
O916        H917   0.992       .  S
C919        C920   1.399       .  A
C919        C924   1.415       .  A
C920        H925   1.081       .  S
C920        C921   1.404       .  A
C921        C922   1.410       .  A
C921        O926   1.371       .  S
C922        C923   1.400       .  A
C923        H927   1.084       .  S
C923        C924   1.401       .  A
C924        O928   1.371   1_556  S
O926        H930   0.992       .  S
O928        H929   0.991   1_554  S
C931        C932   1.395       .  A
C931        C936   1.411       .  A
C932        H937   1.085       .  S
C932        C933   1.384       .  A
C933        C934   1.411       .  A
C933        O938   1.377       .  S
C934        C935   1.404       .  A
C935        H939   1.083       .  S
C935        C936   1.410       .  A
C936        O940   1.370       .  S
O938        H942   0.993       .  S
O940        H941   0.991       .  S
C943        C944   1.404       .  A
C943        C948   1.408       .  A
C944        H949   1.082       .  S
C944        C945   1.386       .  A
C945        C946   1.404       .  A
C945        O950   1.374       .  S
C946        C947   1.411       .  A
C947        H951   1.083       .  S
C947        C948   1.412       .  A
C948        O952   1.371       .  S
O950        H954   0.992       .  S
O952        H953   0.991       .  S
C955        N973   1.351       .  A
C955        C992   1.463       .  S
C955       C1125   1.466       .  S
N956        N973   1.318       .  A
N956        N978   1.317       .  A
N956      Co1470   2.091   1_554  S
C957        N982   1.355       .  A
C957        C995   1.481       .  S
C957       H1002   1.082       .  S
H958        C999   1.081       .  S
C959        N983   1.324       .  A
C959        C963   1.457       .  S
C959        H988   1.080       .  S
Co960      N1455   2.075       .  S
Co960      N1445   2.108       .  S
Co960      N1000   2.116       .  S
Co960       N976   2.079       .  S
Co960     Cl1481   2.440       .  S
N961        C999   1.354       .  A
N961        N968   1.323       .  A
N961       Co962   2.103   1_554  S
Co962       N965   2.124   1_556  S
Co962      N1459   2.120       .  S
Co962      N1446   2.098       .  S
Co962     Cl1004   2.501       .  S
C963       N1001   1.365       .  A
C963       C1119   1.505       .  S
N964        N971   1.319       .  A
N964        N994   1.336       .  A
N964       Co997   2.108   1_554  S
N965        N983   1.323       .  A
N965       N1001   1.346       .  A
N966        C995   1.350       .  A
N966        N976   1.315       .  A
H967        C992   1.082       .  S
N968        N989   1.324       .  A
N968      Co1437   2.115   1_554  S
N969        N987   1.320       .  A
N969        N974   1.328       .  A
N969      Co1439   2.095       .  S
C970        N974   1.356       .  A
C970        C998   1.473       .  S
C970       C1139   1.466       .  S
N971        C986   1.334       .  A
N971      Co1470   2.089   1_554  S
C972       N1000   1.357       .  A
C972        C975   1.482       .  S
C972       H1006   1.082       .  S
C975        N996   1.344       .  A
C975       C1131   1.479       .  S
N976        N982   1.318       .  A
N977       C1003   1.334       .  A
N977        N979   1.313       .  A
N977       Co993   2.062       .  S
N978        C992   1.347       .  A
N978      Co1437   2.072   1_554  S
N979       N1007   1.339       .  A
N979      Co1474   2.137       .  S
H980       C1003   1.082       .  S
H981        C998   1.081       .  S
N982      Co1439   2.120       .  S
N983       Co997   2.100   1_554  S
N984        N996   1.315       .  A
N984       N1000   1.315       .  A
N984       Co993   2.060       .  S
C985        N989   1.352       .  A
C985        C999   1.470       .  S
C985       C1014   1.488       .  S
C986       C1005   1.460       .  S
C986        H990   1.082       .  S
N987        C998   1.330       .  A
N987      Co1474   2.093       .  S
C991       N1007   1.369       .  A
C991       C1003   1.454       .  S
C991       C1022   1.494       .  S
Co993      N1433   2.083       .  S
Co993      N1448   2.078       .  S
Co993     Cl1481   2.418       .  S
N994       C1005   1.357       .  A
C995       C1028   1.476       .  S
Co997      N1456   2.133       .  S
Co997      N1464   2.091       .  S
Co997     Cl1004   2.441       .  S
Cl1004    Co1437   2.446       .  S
Cl1004    Co1470   2.419       .  S
C1005      C1008   1.487       .  S
C1008      N1009   1.360       .  A
C1008      N1013   1.380       .  A
N1009      C1010   1.348       .  A
C1010      N1011   1.346       .  A
C1010      C1420   1.475       .  S
N1011      C1012   1.358       .  A
C1012      N1013   1.377       .  A
C1012      C1096   1.496       .  S
C1014      N1015   1.377       .  A
C1014      N1019   1.360       .  A
N1015      C1016   1.376       .  A
C1016      N1017   1.355       .  A
C1016      C1106   1.486       .  S
N1017      C1018   1.345       .  A
C1018      N1019   1.353       .  A
C1018      C1411   1.469       .  S
C1020      N1021   1.375       .  A
C1020      N1025   1.359       .  A
C1020      C1116   1.488       .  S
N1021      C1022   1.375       .  A
C1022      N1023   1.364       .  A
N1023      C1024   1.356       .  A
C1024      N1025   1.351       .  A
C1024      C1399   1.479       .  S
C1026      N1027   1.374       .  A
C1026      N1031   1.361       .  A
C1026      C1102   1.480       .  S
N1027      C1028   1.371       .  A
C1028      N1029   1.352       .  A
N1029      C1030   1.341       .  A
C1030      N1031   1.353       .  A
C1030      C1387   1.462       .  S
N1032      C1037   1.351       .  A
N1032      C2944   1.341       .  A
N1032      H1064   1.043       .  S
N1033      C1517   1.355       .  A
N1033      C1041   1.343       .  A
N1034      C1039   1.363       .  A
N1034      C2946   1.362       .  A
N1034      H1065   1.040       .  S
N1035      C1519   1.354       .  A
N1035      C1043   1.340       .  A
C1036      N2940   1.340   1_455  A
C1036      C1044   1.390   1_455  A
C1036      C1052   1.402       .  A
C1037      C1053   1.395       .  A
C1037      C1045   1.378       .  A
C1038      N2942   1.361   1_455  A
C1038      C1046   1.384       .  A
C1038      C1055   1.421       .  A
C1039      C1054   1.428       .  A
C1039      C1047   1.387       .  A
C1040      N1510   1.356       .  A
C1040      C1052   1.405       .  A
C1040      C1048   1.380       .  A
C1041      C1055   1.417       .  A
C1041      C1049   1.394       .  A
C1042      N1512   1.357       .  A
C1042      C1050   1.375       .  A
C1042      C1053   1.401       .  A
C1043      C1051   1.400       .  A
C1043      C1054   1.423       .  A
C1044      H1056   1.068   1_655  S
C1044      C2953   1.363       .  A
C1045      H1057   1.083       .  S
C1045      C2952   1.361       .  A
C1046      H1058   1.083       .  S
C1046      C2955   1.376   1_455  A
C1047      H1059   1.083       .  S
C1047      C2954   1.377       .  A
C1048      H1060   1.083       .  S
C1048      C1526   1.364       .  A
C1049      H1061   1.081       .  S
C1049      C1525   1.363       .  A
C1050      H1062   1.083       .  S
C1050      C1528   1.369       .  A
C1051      H1063   1.078       .  S
C1051      C1527   1.370       .  A
C1052      C1396   1.495       .  S
C1053      C1384   1.475       .  S
C1054      C1408   1.482       .  S
C1055      C1423   1.483       .  S
C1066      N1084   1.353       .  A
C1066      C1103   1.482       .  S
C1066      C1189   1.488       .  S
N1067      N1084   1.319       .  A
N1067      N1089   1.316       .  A
N1067     Co3012   2.085       .  S
C1068      N1093   1.364       .  A
C1068      C1106   1.479       .  S
C1068      H1113   1.081       .  S
H1069      C1110   1.081       .  S
C1070      N1094   1.328       .  A
C1070      C1074   1.470       .  S
C1070      H1099   1.083       .  S
Co1071     N2997   2.137       .  S
Co1071     N2987   2.067       .  S
Co1071     N1111   2.079       .  S
Co1071     N1087   2.077       .  S
Co1071    Cl1115   2.455       .  S
N1072      C1110   1.367       .  A
N1072      N1079   1.318       .  A
N1072     Co2981   2.138       .  S
Co1073     N2980   2.130       .  S
Co1073     N2984   2.090       .  S
Co1073     N1093   2.127       .  S
Co1073     N1080   2.124       .  S
Co1073    Cl1115   2.499       .  S
C1074      N1112   1.357       .  A
C1074      C1177   1.465       .  S
N1075      N1082   1.313       .  A
N1075      N1105   1.334       .  A
N1075     Co3016   2.105       .  S
N1076      N1094   1.315       .  A
N1076      N1112   1.327       .  A
N1076     Co2981   2.089       .  S
N1077      C1106   1.345       .  A
N1077      N1087   1.310       .  A
H1078      C1103   1.073       .  S
N1079      N1100   1.308       .  A
N1079     Co2979   2.067       .  S
N1080      N1098   1.321       .  A
N1080      N1085   1.345       .  A
C1081      N1085   1.366       .  A
C1081      C1109   1.459       .  S
C1081      C1197   1.506       .  S
N1082      C1097   1.338       .  A
N1082     Co3012   2.078       .  S
C1083      N1111   1.350       .  A
C1083      C1086   1.465       .  S
C1083      H1117   1.081       .  S
C1086      N1107   1.352       .  A
C1086      C1185   1.477       .  S
N1087      N1093   1.322       .  A
N1088      C1114   1.340       .  A
N1088      N1090   1.320       .  A
N1088     Co1104   2.099       .  S
N1089      C1103   1.357       .  A
N1089     Co2979   2.129       .  S
N1090      N1118   1.331       .  A
N1090     Co1108   2.102       .  S
H1091      C1114   1.082       .  S
H1092      C1109   1.082       .  S
N1094     Co3016   2.076       .  S
N1095      N1107   1.322       .  A
N1095      N1111   1.317       .  A
N1095     Co1104   2.098       .  S
C1096      N1100   1.345       .  A
C1096      C1110   1.487       .  S
C1097      C1116   1.465       .  S
C1097      H1101   1.082       .  S
N1098      C1109   1.329       .  A
N1098     Co1108   2.103       .  S
C1102      N1118   1.355       .  A
C1102      C1114   1.464       .  S
Co1104     N2975   2.086       .  S
Co1104     N2990   2.080       .  S
Co1104    Cl1115   2.431       .  S
N1105      C1116   1.360       .  A
Co1108     N2983   2.104       .  S
Co1108     N3002   2.088       .  S
Co1108    Cl1115   2.425       .  S
C1119      N1120   1.354       .  A
C1119      N1124   1.384       .  A
N1120      C1121   1.342       .  A
C1121      N1122   1.346       .  A
C1121      C1372   1.474       .  S
N1122      C1123   1.362       .  A
C1123      N1124   1.387       .  A
C1123      C1265   1.498       .  S
C1125      N1126   1.371       .  A
C1125      N1130   1.354       .  A
N1126      C1127   1.370       .  A
C1127      N1128   1.349       .  A
C1127      C1275   1.465       .  S
N1128      C1129   1.340       .  A
C1129      N1130   1.346       .  A
C1129      C1360   1.456       .  S
C1131      N1132   1.360       .  A
C1131      N1136   1.372       .  A
N1132      C1133   1.347       .  A
C1133      N1134   1.350       .  A
C1133      C1348   1.475       .  S
N1134      C1135   1.360       .  A
C1135      N1136   1.373       .  A
C1135      C1271   1.482       .  S
C1137      N1138   1.370       .  A
C1137      N1142   1.358       .  A
C1137      C1285   1.467       .  S
N1138      C1139   1.367       .  A
C1139      N1140   1.347       .  A
N1140      C1141   1.334       .  A
C1141      N1142   1.350       .  A
C1141      C1339   1.446       .  S
N1143      C1625   1.340   1_554  A
N1143      C1147   1.355       .  A
N1143      H1175   1.044       .  S
N1144      C1152   1.343       .  A
N1145      C1627   1.356   1_554  A
N1145      C1149   1.363       .  A
N1145      H1176   1.041       .  S
N1146      C1154   1.335       .  A
C1147      C1155   1.380       .  A
C1147      C1163   1.405       .  A
C1148      N1620   1.342       .  A
C1148      C1164   1.399       .  A
C1148      C1156   1.382       .  A
C1149      C1157   1.388       .  A
C1149      C1166   1.429       .  A
C1150      N1622   1.356       .  A
C1150      C1165   1.413       .  A
C1150      C1158   1.383       .  A
C1151      C1163   1.406       .  A
C1151      C1159   1.383       .  A
C1152      C1166   1.419       .  A
C1152      C1160   1.394       .  A
C1153      C1161   1.376       .  A
C1153      C1164   1.411       .  A
C1154      C1162   1.398       .  A
C1154      C1165   1.416       .  A
C1155      H1167   1.082       .  S
C1155      C1633   1.372   1_554  A
C1156      H1168   1.083       .  S
C1156      C1632   1.371       .  A
C1157      H1169   1.083       .  S
C1157      C1635   1.378       .  A
C1158      H1170   1.083       .  S
C1158      C1634   1.378       .  A
C1159      H1171   1.083       .  S
C1160      H1172   1.076       .  S
C1161      H1173   1.082       .  S
C1162      H1174   1.078       .  S
C1163      C1363   1.473       .  S
C1164      C1351   1.501       .  S
C1165      C1336   1.474       .  S
C1166      C1375   1.501       .  S
C1177      N1178   1.364       .  A
C1177      N1182   1.350       .  A
N1178      C1179   1.369       .  A
C1179      N1180   1.364       .  A
C1179      C1235   1.468       .  S
N1180      C1181   1.353       .  A
C1181      N1182   1.334       .  A
C1181      C1324   1.462       .  S
C1183      N1184   1.372       .  A
C1183      N1188   1.352       .  A
C1183      C1250   1.473       .  S
N1184      C1185   1.372       .  A
C1185      N1186   1.356       .  A
N1186      C1187   1.349       .  A
C1187      N1188   1.342       .  A
C1187      C1315   1.453       .  S
C1189      N1190   1.351       .  A
C1189      N1194   1.382       .  A
N1190      C1191   1.341       .  A
C1191      N1192   1.352       .  A
C1191      C1303   1.469       .  S
N1192      C1193   1.360       .  A
C1193      N1194   1.382       .  A
C1193      C1255   1.501       .  S
C1195      N1196   1.390       .  A
C1195      N1200   1.356       .  A
C1195      C1243   1.513       .  S
N1196      C1197   1.393       .  A
C1197      N1198   1.361       .  A
N1198      C1199   1.339       .  A
C1199      N1200   1.338       .  A
C1199      C1288   1.466       .  S
N1201      C1206   1.355   1_545  A
N1201      H1233   1.038       .  S
N1202      C1209   1.346       .  A
N1202      C3118   1.347       .  A
N1203      C1208   1.356       .  A
N1203      H1234   1.040   1_565  S
N1204      C1211   1.346       .  A
N1204      C3120   1.341       .  A
C1205      C1213   1.383       .  A
C1205      C1221   1.405       .  A
C1206      C1222   1.419       .  A
C1206      C1214   1.388       .  A
C1207      C1215   1.384       .  A
C1207      C1224   1.414       .  A
C1208      C1223   1.421       .  A
C1208      C1216   1.388       .  A
C1209      C1221   1.399       .  A
C1209      C1217   1.388       .  A
C1210      N3110   1.346   1_455  A
C1210      C1224   1.402       .  A
C1210      C1218   1.381   1_455  A
C1211      C1219   1.388       .  A
C1211      C1222   1.402       .  A
C1212      N3112   1.343   1_455  A
C1212      C1220   1.382   1_455  A
C1212      C1223   1.401       .  A
C1213      H1225   1.082       .  S
C1214      H1226   1.083       .  S
C1215      H1227   1.080       .  S
C1216      H1228   1.073       .  S
C1217      H1229   1.080       .  S
C1217      C3126   1.369       .  A
C1218      H1230   1.082   1_655  S
C1218      C3125   1.370       .  A
C1219      H1231   1.081       .  S
C1219      C3128   1.378       .  A
C1220      H1232   1.083   1_655  S
C1220      C3127   1.376       .  A
C1221      C1312   1.482       .  S
C1222      C1291   1.498       .  S
C1223      C1327   1.483       .  S
C1224      C1300   1.486       .  S
C1235      N1253   1.344       .  A
C1235      C1272   1.469       .  S
N1236      N1253   1.319       .  A
N1236      N1258   1.318       .  A
C1237      N1262   1.348       .  A
C1237      C1275   1.468       .  S
C1237      H1282   1.078       .  S
H1238      C1279   1.081       .  S
C1239      N1263   1.326       .  A
C1239      C1243   1.460       .  S
C1239      H1268   1.082       .  S
Co1240     N1280   2.134       .  S
Co1240     N1256   2.087       .  S
Co1240    Cl1284   2.435       .  S
N1241      C1279   1.363       .  A
N1241      N1248   1.325       .  A
Co1242     N1262   2.106       .  S
Co1242     N1249   2.109       .  S
Co1242    Cl1284   2.513       .  S
C1243      N1281   1.370       .  A
N1244      N1251   1.318       .  A
N1244      N1274   1.328       .  A
N1244     Co1277   2.081   1_565  S
N1245      N1263   1.321       .  A
N1245      N1281   1.347       .  A
N1246      C1275   1.353       .  A
N1246      N1256   1.317       .  A
H1247      C1272   1.082       .  S
N1248      N1269   1.320       .  A
N1249      N1267   1.319       .  A
N1249      N1254   1.331       .  A
C1250      N1254   1.359       .  A
C1250      C1278   1.468       .  S
N1251      C1266   1.337       .  A
C1252      N1280   1.360       .  A
C1252      C1255   1.484       .  S
C1252      H1286   1.082       .  S
C1255      N1276   1.354       .  A
N1256      N1262   1.321       .  A
N1257      C1283   1.333       .  A
N1257      N1259   1.316       .  A
N1257     Co1273   2.072       .  S
N1258      C1272   1.350       .  A
N1259      N1287   1.334       .  A
H1260      C1283   1.082       .  S
H1261      C1278   1.082       .  S
N1263     Co1277   2.098   1_565  S
N1264      N1276   1.324       .  A
N1264      N1280   1.316       .  A
N1264     Co1273   2.087       .  S
C1265      N1269   1.350       .  A
C1265      C1279   1.481       .  S
C1266      C1285   1.460       .  S
C1266      H1270   1.082       .  S
N1267      C1278   1.333       .  A
C1271      N1287   1.361       .  A
C1271      C1283   1.461       .  S
Co1273    Cl1284   2.447       .  S
N1274      C1285   1.351       .  A
C1288      C1289   1.407       .  A
C1288      C1293   1.398       .  A
C1289      H1294   1.083       .  S
C1289      C1290   1.412       .  A
C1290      C1291   1.409       .  A
C1290      O1295   1.372       .  S
C1291      C1292   1.407       .  A
C1292      H1296   1.078       .  S
C1292      C1293   1.385       .  A
C1293      O1297   1.372       .  S
O1295      H1299   0.992       .  S
O1297      H1298   0.992       .  S
C1300      C1301   1.407       .  A
C1300      C1305   1.406       .  A
C1301      H1306   1.084   1_455  S
C1301      C1302   1.397       .  A
C1302      C1303   1.406       .  A
C1302      O1307   1.372       .  S
C1303      C1304   1.404       .  A
C1304      H1308   1.084       .  S
C1304      C1305   1.400       .  A
C1305      O1309   1.370       .  S
O1307      H1311   0.992       .  S
O1309      H1310   0.991       .  S
C1312      C1313   1.413       .  A
C1312      C1317   1.399       .  A
C1313      H1318   1.084       .  S
C1313      C1314   1.398       .  A
C1314      C1315   1.398       .  A
C1314      O1319   1.371       .  S
C1315      C1316   1.402       .  A
C1316      H1320   1.085       .  S
C1316      C1317   1.390       .  A
C1317      O1321   1.367       .  S
O1319      H1323   0.992       .  S
O1321      H1322   0.992       .  S
C1324      C1325   1.400       .  A
C1324      C1329   1.408       .  A
C1325      H1330   1.084       .  S
C1325      C1326   1.395       .  A
C1326      C1327   1.409       .  A
C1326      O1331   1.371   1_455  S
C1327      C1328   1.399       .  A
C1328      H1332   1.072       .  S
C1328      C1329   1.400       .  A
C1329      O1333   1.371       .  S
O1331      H1335   0.992       .  S
O1333      H1334   0.991       .  S
C1336      C1337   1.398       .  A
C1336      C1341   1.417       .  A
C1337      H1342   1.081       .  S
C1337      C1338   1.397       .  A
C1338      C1339   1.408       .  A
C1338      O1343   1.373       .  S
C1339      C1340   1.390       .  A
C1340      H1344   1.084       .  S
C1340      C1341   1.388       .  A
C1341      O1345   1.370       .  S
O1343      H1347   0.991       .  S
O1345      H1346   0.989       .  S
C1348      C1349   1.393       .  A
C1348      C1353   1.411       .  A
C1349      H1354   1.084       .  S
C1349      C1350   1.398       .  A
C1350      C1351   1.417       .  A
C1350      O1355   1.368       .  S
C1351      C1352   1.404       .  A
C1352      H1356   1.083       .  S
C1352      C1353   1.406       .  A
C1353      O1357   1.372       .  S
O1355      H1359   0.992       .  S
O1357      H1358   0.992       .  S
C1360      C1361   1.400       .  A
C1360      C1365   1.410       .  A
C1361      H1366   1.084       .  S
C1361      C1362   1.395       .  A
C1362      C1363   1.412       .  A
C1362      O1367   1.372       .  S
C1363      C1364   1.393       .  A
C1364      H1368   1.071       .  S
C1364      C1365   1.388       .  A
C1365      O1369   1.373       .  S
O1367      H1371   0.992       .  S
O1369      H1370   0.992       .  S
C1372      C1373   1.408       .  A
C1372      C1377   1.407       .  A
C1373      H1378   1.083       .  S
C1373      C1374   1.418       .  A
C1374      C1375   1.414       .  A
C1374      O1379   1.375       .  S
C1375      C1376   1.398       .  A
C1376      H1380   1.075       .  S
C1376      C1377   1.379       .  A
C1377      O1381   1.376       .  S
O1379      H1383   0.992       .  S
O1381      H1382   0.993       .  S
C1384      C1385   1.404       .  A
C1384      C1389   1.396       .  A
C1385      H1390   1.084       .  S
C1385      C1386   1.396       .  A
C1386      C1387   1.405       .  A
C1386      O1391   1.371       .  S
C1387      C1388   1.405       .  A
C1388      H1392   1.084       .  S
C1388      C1389   1.399       .  A
C1389      O1393   1.367       .  S
O1391      H1395   0.992       .  S
O1393      H1394   0.992       .  S
C1396      C1397   1.400       .  A
C1396      C1401   1.414       .  A
C1397      H1402   1.082       .  S
C1397      C1398   1.405       .  A
C1398      C1399   1.412       .  A
C1398      O1403   1.371       .  S
C1399      C1400   1.400       .  A
C1400      H1404   1.084       .  S
C1400      C1401   1.401       .  A
C1401      O1405   1.372       .  S
O1403      H1407   0.992       .  S
O1405      H1406   0.991       .  S
C1408      C1409   1.395       .  A
C1408      C1413   1.413       .  A
C1409      H1414   1.085       .  S
C1409      C1410   1.381       .  A
C1410      C1411   1.409       .  A
C1410      O1415   1.377       .  S
C1411      C1412   1.406       .  A
C1412      H1416   1.083       .  S
C1412      C1413   1.411       .  A
C1413      O1417   1.370       .  S
O1415      H1419   0.992       .  S
O1417      H1418   0.990       .  S
C1420      C1421   1.404       .  A
C1420      C1425   1.407       .  A
C1421      H1426   1.081       .  S
C1421      C1422   1.384       .  A
C1422      C1423   1.402       .  A
C1422      O1427   1.374       .  S
C1423      C1424   1.411       .  A
C1424      H1428   1.083       .  S
C1424      C1425   1.412       .  A
C1425      O1429   1.371       .  S
O1427      H1431   0.992       .  S
O1429      H1430   0.991       .  S
C1432      N1450   1.349       .  A
C1432      C1469   1.464       .  S
C1432      C1602   1.465       .  S
N1433      N1450   1.318       .  A
N1433      N1455   1.316       .  A
C1434      N1459   1.353       .  A
C1434      C1472   1.481       .  S
C1434      H1479   1.080       .  S
H1435      C1476   1.081       .  S
C1436      N1460   1.330       .  A
C1436      C1440   1.462       .  S
C1436      H1465   1.081       .  S
Co1437     N1477   2.115       .  S
Co1437     N1453   2.079       .  S
N1438      C1476   1.353       .  A
N1438      N1445   1.322       .  A
N1438     Co1439   2.092       .  S
Co1439     N1442   2.123       .  S
Co1439    Cl1481   2.503       .  S
C1440      N1478   1.363       .  A
C1440      C1596   1.508       .  S
N1441      N1448   1.319       .  A
N1441      N1471   1.336       .  A
N1441     Co1474   2.107       .  S
N1442      N1460   1.323       .  A
N1442      N1478   1.345       .  A
N1443      C1472   1.351       .  A
N1443      N1453   1.316       .  A
H1444      C1469   1.082       .  S
N1445      N1466   1.320       .  A
N1446      N1464   1.320       .  A
N1446      N1451   1.329       .  A
C1447      N1451   1.356       .  A
C1447      C1475   1.471       .  S
C1447      C1616   1.466       .  S
N1448      C1463   1.330       .  A
C1449      N1477   1.356       .  A
C1449      C1452   1.482       .  S
C1449      H1483   1.082       .  S
C1452      N1473   1.346       .  A
C1452      C1608   1.477       .  S
N1453      N1459   1.317       .  A
N1454      C1480   1.334       .  A
N1454      N1456   1.313       .  A
N1454     Co1470   2.067       .  S
N1455      C1469   1.347       .  A
N1456      N1484   1.339       .  A
H1457      C1480   1.082       .  S
H1458      C1475   1.082       .  S
N1460     Co1474   2.111       .  S
N1461      N1473   1.315       .  A
N1461      N1477   1.314       .  A
N1461     Co1470   2.065       .  S
C1462      N1466   1.349       .  A
C1462      C1476   1.469       .  S
C1462      C1491   1.479       .  S
C1463      C1482   1.455       .  S
C1463      H1467   1.082       .  S
N1464      C1475   1.330       .  A
C1468      N1484   1.368       .  A
C1468      C1480   1.457       .  S
C1468      C1499   1.494       .  S
N1471      C1482   1.358       .  A
C1472      C1505   1.475       .  S
Co1474    Cl1481   2.441       .  S
C1482      C1485   1.480       .  S
C1485      N1486   1.359       .  A
C1485      N1490   1.376       .  A
N1486      C1487   1.347       .  A
C1487      N1488   1.346       .  A
C1487      C1897   1.474       .  S
N1488      C1489   1.358       .  A
C1489      N1490   1.374       .  A
C1489      C1573   1.488       .  S
C1491      N1492   1.375       .  A
C1491      N1496   1.359       .  A
N1492      C1493   1.374       .  A
C1493      N1494   1.354       .  A
C1493      C1583   1.479       .  S
N1494      C1495   1.342       .  A
C1495      N1496   1.350       .  A
C1495      C1888   1.466       .  S
C1497      N1498   1.376       .  A
C1497      N1502   1.358       .  A
C1497      C1593   1.487       .  S
N1498      C1499   1.376       .  A
C1499      N1500   1.362       .  A
N1500      C1501   1.354       .  A
C1501      N1502   1.348       .  A
C1501      C1876   1.473       .  S
C1503      N1504   1.374       .  A
C1503      N1508   1.360       .  A
C1503      C1579   1.482       .  S
N1504      C1505   1.371       .  A
C1505      N1506   1.351       .  A
N1506      C1507   1.342       .  A
C1507      N1508   1.355       .  A
C1507      C1864   1.464       .  S
N1509      C1514   1.348       .  A
N1509      C3421   1.341       .  A
N1509      H1541   1.044       .  S
N1510      C1518   1.343       .  A
N1511      C1516   1.359       .  A
N1511      C3423   1.363       .  A
N1511      H1542   1.040       .  S
N1512      C1520   1.341       .  A
C1513      N3417   1.340   1_455  A
C1513      C1521   1.390   1_455  A
C1513      C1529   1.400       .  A
C1514      C1530   1.395       .  A
C1514      C1522   1.380       .  A
C1515      N3419   1.361   1_455  A
C1515      C1523   1.385       .  A
C1515      C1532   1.422       .  A
C1516      C1531   1.423       .  A
C1516      C1524   1.386       .  A
C1517      C1529   1.404   1_554  A
C1517      C1525   1.380       .  A
C1518      C1532   1.417       .  A
C1518      C1526   1.394       .  A
C1519      C1527   1.375       .  A
C1519      C1530   1.399   1_554  A
C1520      C1528   1.399       .  A
C1520      C1531   1.422       .  A
C1521      H1533   1.066   1_655  S
C1521      C3430   1.363       .  A
C1522      H1534   1.083   1_556  S
C1522      C3429   1.364       .  A
C1523      H1535   1.083       .  S
C1523      C3432   1.377   1_455  A
C1524      H1536   1.083       .  S
C1524      C3431   1.377       .  A
C1525      H1537   1.083   1_554  S
C1526      H1538   1.081       .  S
C1527      H1539   1.083       .  S
C1528      H1540   1.079       .  S
C1529      C1873   1.491       .  S
C1530      C1861   1.475       .  S
C1531      C1885   1.478       .  S
C1532      C1900   1.484       .  S
C1543      N1561   1.354       .  A
C1543      C1580   1.488       .  S
C1543      C1666   1.497       .  S
N1544      N1561   1.320       .  A
N1544      N1566   1.317       .  A
N1544     Co3489   2.090       .  S
C1545      N1570   1.361       .  A
C1545      C1583   1.475       .  S
C1545      H1590   1.081       .  S
H1546      C1587   1.080       .  S
C1547      N1571   1.329       .  A
C1547      C1551   1.471       .  S
C1547      H1576   1.083       .  S
Co1548     N3474   2.133       .  S
Co1548     N3464   2.062       .  S
Co1548     N1588   2.081       .  S
Co1548     N1564   2.075       .  S
Co1548    Cl1592   2.459       .  S
N1549      C1587   1.363       .  A
N1549      N1556   1.318       .  A
N1549     Co3458   2.126       .  S
Co1550     N3457   2.135       .  S
Co1550     N3461   2.085       .  S
Co1550     N1570   2.118       .  S
Co1550     N1557   2.127       .  S
Co1550    Cl1592   2.497       .  S
C1551      N1589   1.358       .  A
C1551      C1654   1.468       .  S
N1552      N1559   1.312       .  A
N1552      N1582   1.334       .  A
N1552     Co3493   2.103       .  S
N1553      N1571   1.314       .  A
N1553      N1589   1.328       .  A
N1553     Co3458   2.090       .  S
N1554      C1583   1.345       .  A
N1554      N1564   1.309       .  A
H1555      C1580   1.073       .  S
N1556      N1577   1.308       .  A
N1556     Co3456   2.069       .  S
N1557      N1575   1.321       .  A
N1557      N1562   1.347       .  A
C1558      N1562   1.367       .  A
C1558      C1586   1.458       .  S
C1558      C1674   1.509       .  S
N1559      C1574   1.337       .  A
N1559     Co3489   2.077       .  S
C1560      N1588   1.351       .  A
C1560      C1563   1.465       .  S
C1560      H1594   1.082       .  S
C1563      N1584   1.353       .  A
C1563      C1662   1.480       .  S
N1564      N1570   1.322       .  A
N1565      C1591   1.343       .  A
N1565      N1567   1.321       .  A
N1565     Co1581   2.109       .  S
N1566      C1580   1.360       .  A
N1566     Co3456   2.144       .  S
N1567      N1595   1.330       .  A
N1567     Co1585   2.102       .  S
H1568      C1591   1.082       .  S
H1569      C1586   1.082       .  S
N1571     Co3493   2.077       .  S
N1572      N1584   1.322       .  A
N1572      N1588   1.318       .  A
N1572     Co1581   2.104       .  S
C1573      N1577   1.346       .  A
C1573      C1587   1.481       .  S
C1574      C1593   1.465       .  S
C1574      H1578   1.082       .  S
N1575      C1586   1.325       .  A
N1575     Co1585   2.098       .  S
C1579      N1595   1.354       .  A
C1579      C1591   1.468       .  S
Co1581     N3452   2.089       .  S
Co1581     N3467   2.084       .  S
Co1581    Cl1592   2.432       .  S
N1582      C1593   1.361       .  A
Co1585     N3460   2.105       .  S
Co1585     N3479   2.084       .  S
Co1585    Cl1592   2.425       .  S
C1596      N1597   1.355       .  A
C1596      N1601   1.386       .  A
N1597      C1598   1.345       .  A
C1598      N1599   1.347       .  A
C1598      C1849   1.470       .  S
N1599      C1600   1.359       .  A
C1600      N1601   1.388       .  A
C1600      C1742   1.500       .  S
C1602      N1603   1.368       .  A
C1602      N1607   1.356       .  A
N1603      C1604   1.368       .  A
C1604      N1605   1.352       .  A
C1604      C1752   1.462       .  S
N1605      C1606   1.342       .  A
C1606      N1607   1.348       .  A
C1606      C1837   1.461       .  S
C1608      N1609   1.357       .  A
C1608      N1613   1.373       .  A
N1609      C1610   1.344       .  A
C1610      N1611   1.350       .  A
C1610      C1825   1.470       .  S
N1611      C1612   1.360       .  A
C1612      N1613   1.374       .  A
C1612      C1748   1.481       .  S
C1614      N1615   1.370       .  A
C1614      N1619   1.359       .  A
C1614      C1762   1.470       .  S
N1615      C1616   1.367       .  A
C1616      N1617   1.348       .  A
N1617      C1618   1.336       .  A
C1618      N1619   1.352       .  A
C1618      C1816   1.451       .  S
N1620      C1624   1.353       .  A
N1620      H1652   1.045       .  S
N1621      C1629   1.342       .  A
N1622      C1626   1.363       .  A
N1622      H1653   1.041       .  S
N1623      C1631   1.334       .  A
C1624      C1632   1.381       .  A
C1624      C1640   1.403       .  A
C1625      C1641   1.399       .  A
C1625      C1633   1.381       .  A
C1626      C1634   1.387       .  A
C1626      C1643   1.428       .  A
C1627      C1642   1.414       .  A
C1627      C1635   1.382   1_556  A
C1628      C1640   1.405       .  A
C1628      C1636   1.380       .  A
C1629      C1643   1.417       .  A
C1629      C1637   1.394       .  A
C1630      C1638   1.377       .  A
C1630      C1641   1.409       .  A
C1631      C1639   1.398       .  A
C1631      C1642   1.413       .  A
C1632      H1644   1.082       .  S
C1633      H1645   1.083       .  S
C1634      H1646   1.083       .  S
C1635      H1647   1.083   1_554  S
C1636      H1648   1.083       .  S
C1637      H1649   1.078       .  S
C1638      H1650   1.082       .  S
C1639      H1651   1.078       .  S
C1640      C1840   1.474       .  S
C1641      C1828   1.496       .  S
C1642      C1813   1.479       .  S
C1643      C1852   1.493       .  S
C1654      N1655   1.367       .  A
C1654      N1659   1.349       .  A
N1655      C1656   1.371       .  A
C1656      N1657   1.365       .  A
C1656      C1712   1.474       .  S
N1657      C1658   1.354       .  A
C1658      N1659   1.334       .  A
C1658      C1801   1.464       .  S
C1660      N1661   1.374       .  A
C1660      N1665   1.353       .  A
C1660      C1727   1.475       .  S
N1661      C1662   1.373       .  A
C1662      N1663   1.354       .  A
N1663      C1664   1.348       .  A
C1664      N1665   1.343       .  A
C1664      C1792   1.455       .  S
C1666      N1667   1.351       .  A
C1666      N1671   1.387       .  A
N1667      C1668   1.341       .  A
C1668      N1669   1.350       .  A
C1668      C1780   1.467       .  S
N1669      C1670   1.359       .  A
C1670      N1671   1.387       .  A
C1670      C1732   1.507       .  S
C1672      N1673   1.392       .  A
C1672      N1677   1.353       .  A
C1672      C1720   1.509       .  S
N1673      C1674   1.394       .  A
C1674      N1675   1.360       .  A
N1675      C1676   1.337       .  A
C1676      N1677   1.334       .  A
C1676      C1765   1.460       .  S
N1678      C1683   1.355       .  A
N1678      H1710   1.039       .  S
N1679      C1686   1.345       .  A
N1679      C3595   1.345       .  A
N1680      C1685   1.357   1_545  A
N1680      H1711   1.040       .  S
N1681      C1688   1.348       .  A
N1681      C3597   1.343       .  A
C1682      C1690   1.382       .  A
C1682      C1698   1.406       .  A
C1683      C1699   1.421       .  A
C1683      C1691   1.390       .  A
C1684      C1692   1.385       .  A
C1684      C1701   1.416       .  A
C1685      C1700   1.420       .  A
C1685      C1693   1.387       .  A
C1686      C1698   1.397       .  A
C1686      C1694   1.386       .  A
C1687      N3587   1.347   1_455  A
C1687      C1701   1.406       .  A
C1687      C1695   1.384   1_455  A
C1688      C1696   1.389       .  A
C1688      C1699   1.403       .  A
C1689      N3589   1.343   1_455  A
C1689      C1697   1.382   1_455  A
C1689      C1700   1.400       .  A
C1690      H1702   1.083       .  S
C1691      H1703   1.083       .  S
C1692      H1704   1.079       .  S
C1693      H1705   1.074       .  S
C1694      H1706   1.080       .  S
C1694      C3603   1.369       .  A
C1695      H1707   1.082   1_655  S
C1695      C3602   1.368       .  A
C1696      H1708   1.081       .  S
C1696      C3605   1.376       .  A
C1697      H1709   1.083   1_655  S
C1697      C3604   1.376       .  A
C1698      C1789   1.485       .  S
C1699      C1768   1.492       .  S
C1700      C1804   1.484       .  S
C1701      C1777   1.489       .  S
C1712      N1730   1.345       .  A
C1712      C1749   1.471       .  S
N1713      N1730   1.320       .  A
N1713      N1735   1.319       .  A
C1714      N1739   1.349       .  A
C1714      C1752   1.469       .  S
C1714      H1759   1.080       .  S
H1715      C1756   1.081       .  S
C1716      N1740   1.323       .  A
C1716      C1720   1.462       .  S
C1716      H1745   1.082       .  S
Co1717     N1757   2.144       .  S
Co1717     N1733   2.081       .  S
Co1717    Cl1761   2.435       .  S
N1718      C1756   1.362       .  A
N1718      N1725   1.325       .  A
Co1719     N1739   2.104       .  S
Co1719     N1726   2.112       .  S
Co1719    Cl1761   2.518       .  S
C1720      N1758   1.366       .  A
N1721      N1728   1.319       .  A
N1721      N1751   1.329       .  A
N1721     Co1754   2.085   1_565  S
N1722      N1740   1.321       .  A
N1722      N1758   1.346       .  A
N1723      C1752   1.350       .  A
N1723      N1733   1.314       .  A
H1724      C1749   1.082       .  S
N1725      N1746   1.322       .  A
N1726      N1744   1.319       .  A
N1726      N1731   1.332       .  A
C1727      N1731   1.360       .  A
C1727      C1755   1.467       .  S
N1728      C1743   1.337       .  A
C1729      N1757   1.363       .  A
C1729      C1732   1.489       .  S
C1729      H1763   1.082       .  S
C1732      N1753   1.355       .  A
N1733      N1739   1.321       .  A
N1734      C1760   1.335       .  A
N1734      N1736   1.315       .  A
N1734     Co1750   2.075       .  S
N1735      C1749   1.352       .  A
N1736      N1764   1.333       .  A
H1737      C1760   1.082       .  S
H1738      C1755   1.082       .  S
N1740     Co1754   2.100   1_565  S
N1741      N1753   1.324       .  A
N1741      N1757   1.316       .  A
N1741     Co1750   2.088       .  S
C1742      N1746   1.353       .  A
C1742      C1756   1.479       .  S
C1743      C1762   1.460       .  S
C1743      H1747   1.082       .  S
N1744      C1755   1.332       .  A
C1748      N1764   1.360       .  A
C1748      C1760   1.463       .  S
Co1750    Cl1761   2.450       .  S
N1751      C1762   1.352       .  A
C1765      C1766   1.405       .  A
C1765      C1770   1.401       .  A
C1766      H1771   1.083       .  S
C1766      C1767   1.411       .  A
C1767      C1768   1.409       .  A
C1767      O1772   1.371       .  S
C1768      C1769   1.405       .  A
C1769      H1773   1.083       .  S
C1769      C1770   1.381       .  A
C1770      O1774   1.374       .  S
O1772      H1776   0.992       .  S
O1774      H1775   0.992       .  S
C1777      C1778   1.406       .  A
C1777      C1782   1.407       .  A
C1778      H1783   1.082       .  S
C1778      C1779   1.394       .  A
C1779      C1780   1.405       .  A
C1779      O1784   1.373       .  S
C1780      C1781   1.405       .  A
C1781      H1785   1.084       .  S
C1781      C1782   1.400       .  A
C1782      O1786   1.371       .  S
O1784      H1788   0.992       .  S
O1786      H1787   0.991       .  S
C1789      C1790   1.413       .  A
C1789      C1794   1.400       .  A
C1790      H1795   1.082       .  S
C1790      C1791   1.399       .  A
C1791      C1792   1.399       .  A
C1791      O1796   1.371       .  S
C1792      C1793   1.401       .  A
C1793      H1797   1.085       .  S
C1793      C1794   1.389       .  A
C1794      O1798   1.365       .  S
O1796      H1800   0.991       .  S
O1798      H1799   0.992       .  S
C1801      C1802   1.400       .  A
C1801      C1806   1.408       .  A
C1802      H1807   1.084       .  S
C1802      C1803   1.395       .  A
C1803      C1804   1.410       .  A
C1803      O1808   1.372   1_455  S
C1804      C1805   1.399       .  A
C1805      H1809   1.072       .  S
C1805      C1806   1.401       .  A
C1806      O1810   1.371       .  S
O1808      H1812   0.992       .  S
O1810      H1811   0.992       .  S
C1813      C1814   1.399       .  A
C1813      C1818   1.418       .  A
C1814      H1819   1.080       .  S
C1814      C1815   1.398       .  A
C1815      C1816   1.407       .  A
C1815      O1820   1.372       .  S
C1816      C1817   1.392       .  A
C1817      H1821   1.084       .  S
C1817      C1818   1.392       .  A
C1818      O1822   1.371   1_556  S
O1820      H1824   0.991       .  S
O1822      H1823   0.990   1_554  S
C1825      C1826   1.393       .  A
C1825      C1830   1.410       .  A
C1826      H1831   1.084       .  S
C1826      C1827   1.398       .  A
C1827      C1828   1.416       .  A
C1827      O1832   1.369       .  S
C1828      C1829   1.403       .  A
C1829      H1833   1.082       .  S
C1829      C1830   1.404       .  A
C1830      O1834   1.371       .  S
O1832      H1836   0.992       .  S
O1834      H1835   0.992       .  S
C1837      C1838   1.401       .  A
C1837      C1842   1.410       .  A
C1838      H1843   1.084       .  S
C1838      C1839   1.397       .  A
C1839      C1840   1.411       .  A
C1839      O1844   1.372       .  S
C1840      C1841   1.392       .  A
C1841      H1845   1.074       .  S
C1841      C1842   1.390       .  A
C1842      O1846   1.372       .  S
O1844      H1848   0.992       .  S
O1846      H1847   0.992       .  S
C1849      C1850   1.408       .  A
C1849      C1854   1.406       .  A
C1850      H1855   1.083       .  S
C1850      C1851   1.417       .  A
C1851      C1852   1.412       .  A
C1851      O1856   1.371       .  S
C1852      C1853   1.394       .  A
C1853      H1857   1.073       .  S
C1853      C1854   1.378       .  A
C1854      O1858   1.377       .  S
O1856      H1860   0.991       .  S
O1858      H1859   0.992       .  S
C1861      C1862   1.406       .  A
C1861      C1866   1.394       .  A
C1862      H1867   1.084   1_556  S
C1862      C1863   1.400       .  A
C1863      C1864   1.407       .  A
C1863      O1868   1.371       .  S
C1864      C1865   1.404       .  A
C1865      H1869   1.084       .  S
C1865      C1866   1.396       .  A
C1866      O1870   1.366       .  S
O1868      H1872   0.992       .  S
O1870      H1871   0.992       .  S
C1873      C1874   1.400       .  A
C1873      C1878   1.413       .  A
C1874      H1879   1.081       .  S
C1874      C1875   1.404       .  A
C1875      C1876   1.410       .  A
C1875      O1880   1.372       .  S
C1876      C1877   1.398       .  A
C1877      H1881   1.084       .  S
C1877      C1878   1.399       .  A
C1878      O1882   1.372       .  S
O1880      H1884   0.991       .  S
O1882      H1883   0.990       .  S
C1885      C1886   1.397       .  A
C1885      C1890   1.409       .  A
C1886      H1891   1.085       .  S
C1886      C1887   1.384       .  A
C1887      C1888   1.410       .  A
C1887      O1892   1.376       .  S
C1888      C1889   1.403       .  A
C1889      H1893   1.083       .  S
C1889      C1890   1.409       .  A
C1890      O1894   1.370       .  S
O1892      H1896   0.992       .  S
O1894      H1895   0.990       .  S
C1897      C1898   1.403       .  A
C1897      C1902   1.409       .  A
C1898      H1903   1.082       .  S
C1898      C1899   1.383       .  A
C1899      C1900   1.403       .  A
C1899      O1904   1.374       .  S
C1900      C1901   1.412       .  A
C1901      H1905   1.083       .  S
C1901      C1902   1.412       .  A
C1902      O1906   1.372       .  S
O1904      H1908   0.992       .  S
O1906      H1907   0.991       .  S
C1909      N1927   1.349       .  A
C1909      C1946   1.461       .  S
C1909      C2079   1.461       .  S
N1910      N1927   1.318       .  A
N1910      N1932   1.317       .  A
N1910     Co2424   2.087   1_554  S
C1911      N1936   1.352       .  A
C1911      C1949   1.478       .  S
C1911      H1956   1.080       .  S
H1912      C1953   1.081       .  S
C1913      N1937   1.325       .  A
C1913      C1917   1.456       .  S
C1913      H1942   1.080       .  S
Co1914     N2409   2.068       .  S
Co1914     N2399   2.111       .  S
Co1914     N1954   2.119       .  S
Co1914     N1930   2.069       .  S
Co1914    Cl2435   2.439       .  S
N1915      C1953   1.353       .  A
N1915      N1922   1.322       .  A
N1915     Co1916   2.093   1_554  S
Co1916     N1919   2.119   1_556  S
Co1916     N2413   2.107       .  S
Co1916     N2400   2.094       .  S
Co1916    Cl1958   2.497       .  S
C1917      N1955   1.364       .  A
C1917      C2073   1.501       .  S
N1918      N1925   1.319       .  A
N1918      N1948   1.336       .  A
N1918     Co1951   2.107   1_554  S
N1919      N1937   1.322       .  A
N1919      N1955   1.345       .  A
N1920      C1949   1.350       .  A
N1920      N1930   1.315       .  A
H1921      C1946   1.082       .  S
N1922      N1943   1.323       .  A
N1922     Co2391   2.115   1_554  S
N1923      N1941   1.318       .  A
N1923      N1928   1.328       .  A
N1923     Co2393   2.090       .  S
C1924      N1928   1.356       .  A
C1924      C1952   1.476       .  S
C1924      C2093   1.468       .  S
N1925      C1940   1.332       .  A
N1925     Co2424   2.082   1_554  S
C1926      N1954   1.357       .  A
C1926      C1929   1.484       .  S
C1926      H1960   1.082       .  S
C1929      N1950   1.348       .  A
C1929      C2085   1.483       .  S
N1930      N1936   1.317       .  A
N1931      C1957   1.333       .  A
N1931      N1933   1.313       .  A
N1931     Co1947   2.063       .  S
N1932      C1946   1.345       .  A
N1932     Co2391   2.070   1_554  S
N1933      N1961   1.337       .  A
N1933     Co2428   2.127       .  S
H1934      C1957   1.082       .  S
H1935      C1952   1.081       .  S
N1936     Co2393   2.116       .  S
N1937     Co1951   2.095   1_554  S
N1938      N1950   1.317       .  A
N1938      N1954   1.314       .  A
N1938     Co1947   2.069       .  S
C1939      N1943   1.351       .  A
C1939      C1953   1.466       .  S
C1939      C1968   1.482       .  S
C1940      C1959   1.457       .  S
C1940      H1944   1.082       .  S
N1941      C1952   1.331       .  A
N1941     Co2428   2.097       .  S
C1945      N1961   1.366       .  A
C1945      C1957   1.458       .  S
C1945      C1976   1.489       .  S
Co1947     N2387   2.087       .  S
Co1947     N2402   2.087       .  S
Co1947    Cl2435   2.421       .  S
N1948      C1959   1.357       .  A
C1949      C1982   1.470       .  S
Co1951     N2410   2.124       .  S
Co1951     N2418   2.097       .  S
Co1951    Cl1958   2.443       .  S
Cl1958    Co2391   2.447       .  S
Cl1958    Co2424   2.419       .  S
C1959      C1962   1.483       .  S
C1962      N1963   1.359       .  A
C1962      N1967   1.377       .  A
N1963      C1964   1.347       .  A
C1964      N1965   1.346       .  A
C1964      C2374   1.472       .  S
N1965      C1966   1.359       .  A
C1966      N1967   1.376       .  A
C1966      C2050   1.491       .  S
C1968      N1969   1.375       .  A
C1968      N1973   1.358       .  A
N1969      C1970   1.374       .  A
C1970      N1971   1.355       .  A
C1970      C2060   1.480       .  S
N1971      C1972   1.343       .  A
C1972      N1973   1.351       .  A
C1972      C2365   1.465       .  S
C1974      N1975   1.375       .  A
C1974      N1979   1.361       .  A
C1974      C2070   1.488       .  S
N1975      C1976   1.374       .  A
C1976      N1977   1.361       .  A
N1977      C1978   1.352       .  A
C1978      N1979   1.352       .  A
C1978      C2353   1.477       .  S
C1980      N1981   1.372       .  A
C1980      N1985   1.359       .  A
C1980      C2056   1.475       .  S
N1981      C1982   1.369       .  A
C1982      N1983   1.352       .  A
N1983      C1984   1.342       .  A
C1984      N1985   1.353       .  A
C1984      C2341   1.460       .  S
N1986      C1991   1.350       .  A
N1986      H2018   1.044       .  S
N1987      C2471   1.356       .  A
N1987      C1995   1.341       .  A
N1988      C1993   1.362       .  A
N1988      H2019   1.039       .  S
N1989      C2473   1.353       .  A
N1989      C1997   1.338       .  A
C1990      C1998   1.390       .  A
C1990      C2006   1.403       .  A
C1991      C2007   1.396       .  A
C1991      C1999   1.379       .  A
C1992      C2000   1.386       .  A
C1992      C2009   1.427       .  A
C1993      C2008   1.425       .  A
C1993      C2001   1.387       .  A
C1994      N2464   1.356       .  A
C1994      C2006   1.405       .  A
C1994      C2002   1.380       .  A
C1995      C2009   1.419       .  A
C1995      C2003   1.397       .  A
C1996      N2466   1.353       .  A
C1996      C2004   1.376       .  A
C1996      C2007   1.399       .  A
C1997      C2005   1.400       .  A
C1997      C2008   1.421       .  A
C1998      H2010   1.065       .  S
C1999      H2011   1.083       .  S
C2000      H2012   1.083       .  S
C2001      H2013   1.083       .  S
C2002      H2014   1.083       .  S
C2002      C2480   1.366       .  A
C2003      H2015   1.080       .  S
C2003      C2479   1.365       .  A
C2004      H2016   1.083       .  S
C2004      C2482   1.372       .  A
C2005      H2017   1.080       .  S
C2005      C2481   1.373       .  A
C2006      C2350   1.496       .  S
C2007      C2338   1.473       .  S
C2008      C2362   1.479       .  S
C2009      C2377   1.484       .  S
C2020      N2038   1.356       .  A
C2020      C2057   1.484       .  S
C2020      C2143   1.493       .  S
N2021      N2038   1.321       .  A
N2021      N2043   1.316       .  A
C2022      N2047   1.361       .  A
C2022      C2060   1.476       .  S
C2022      H2067   1.081       .  S
H2023      C2064   1.081       .  S
C2024      N2048   1.326       .  A
C2024      C2028   1.468       .  S
C2024      H2053   1.083       .  S
Co2025     N2065   2.088   1_455  S
Co2025     N2041   2.073   1_455  S
Co2025    Cl2069   2.460       .  S
N2026      C2064   1.364       .  A
N2026      N2033   1.320       .  A
Co2027     N2047   2.122   1_455  S
Co2027     N2034   2.122   1_455  S
Co2027    Cl2069   2.492       .  S
C2028      N2066   1.361       .  A
C2028      C2131   1.473       .  S
N2029      N2036   1.313       .  A
N2029      N2059   1.335       .  A
N2030      N2048   1.315       .  A
N2030      N2066   1.331       .  A
N2031      C2060   1.345       .  A
N2031      N2041   1.310       .  A
H2032      C2057   1.073       .  S
N2033      N2054   1.309       .  A
N2034      N2052   1.321       .  A
N2034      N2039   1.345       .  A
C2035      N2039   1.365       .  A
C2035      C2063   1.461       .  S
C2035      C2151   1.508       .  S
N2036      C2051   1.337       .  A
C2037      N2065   1.353       .  A
C2037      C2040   1.468       .  S
C2037      H2071   1.082       .  S
C2040      N2061   1.352       .  A
C2040      C2139   1.482       .  S
N2041      N2047   1.323       .  A
N2042      C2068   1.340       .  A
N2042      N2044   1.321       .  A
N2042     Co2058   2.104   1_655  S
N2043      C2057   1.356       .  A
N2044      N2072   1.329       .  A
N2044     Co2062   2.097   1_655  S
H2045      C2068   1.082       .  S
H2046      C2063   1.082       .  S
N2049      N2061   1.322       .  A
N2049      N2065   1.317       .  A
N2049     Co2058   2.097   1_655  S
C2050      N2054   1.346       .  A
C2050      C2064   1.485       .  S
C2051      C2070   1.462       .  S
C2051      H2055   1.082       .  S
N2052      C2063   1.330       .  A
N2052     Co2062   2.104   1_655  S
C2056      N2072   1.353       .  A
C2056      C2068   1.466       .  S
Co2058    Cl2069   2.430       .  S
N2059      C2070   1.361       .  A
Co2062    Cl2069   2.430       .  S
C2073      N2074   1.355       .  A
C2073      N2078   1.382       .  A
N2074      C2075   1.343       .  A
C2075      N2076   1.345       .  A
C2075      C2326   1.472       .  S
N2076      C2077   1.360       .  A
C2077      N2078   1.385       .  A
C2077      C2219   1.493       .  S
C2079      N2080   1.366       .  A
C2079      N2084   1.355       .  A
N2080      C2081   1.366       .  A
C2081      N2082   1.352       .  A
C2081      C2229   1.460       .  S
N2082      C2083   1.342       .  A
C2083      N2084   1.348       .  A
C2083      C2314   1.460       .  S
C2085      N2086   1.356       .  A
C2085      N2090   1.376       .  A
N2086      C2087   1.344       .  A
C2087      N2088   1.351       .  A
C2087      C2302   1.468       .  S
N2088      C2089   1.360       .  A
C2089      N2090   1.378       .  A
C2089      C2225   1.491       .  S
C2091      N2092   1.372       .  A
C2091      N2096   1.360       .  A
C2091      C2239   1.472       .  S
N2092      C2093   1.368       .  A
C2093      N2094   1.347       .  A
N2094      C2095   1.332       .  A
C2095      N2096   1.351       .  A
C2095      C2293   1.449       .  S
N2097      C2579   1.341   1_554  A
N2097      C2101   1.355       .  A
N2097      H2129   1.044       .  S
N2098      C3059   1.349       .  A
N2098      C2106   1.343       .  A
N2099      C2581   1.354   1_554  A
N2099      C2103   1.362       .  A
N2099      H2130   1.041       .  S
N2100      C3061   1.357       .  A
N2100      C2108   1.335       .  A
C2101      C2109   1.381       .  A
C2101      C2117   1.404       .  A
C2102      N2574   1.342       .  A
C2102      C2118   1.397       .  A
C2102      C2110   1.380       .  A
C2103      C2111   1.388       .  A
C2103      C2120   1.427       .  A
C2104      N2576   1.354       .  A
C2104      C2119   1.411       .  A
C2104      C2112   1.382       .  A
C2105      N3052   1.350   1_545  A
C2105      C2117   1.406       .  A
C2105      C2113   1.381   1_545  A
C2106      C2120   1.418       .  A
C2106      C2114   1.393       .  A
C2107      N3054   1.355   1_545  A
C2107      C2115   1.378   1_545  A
C2107      C2118   1.408       .  A
C2108      C2116   1.397       .  A
C2108      C2119   1.414       .  A
C2109      H2121   1.082       .  S
C2109      C2587   1.370   1_554  A
C2110      H2122   1.083       .  S
C2110      C2586   1.370       .  A
C2111      H2123   1.083       .  S
C2111      C2589   1.378       .  A
C2112      H2124   1.083       .  S
C2112      C2588   1.379       .  A
C2113      H2125   1.083   1_565  S
C2113      C3068   1.373       .  A
C2114      H2126   1.079       .  S
C2114      C3067   1.374       .  A
C2115      H2127   1.082   1_565  S
C2115      C3070   1.369       .  A
C2116      H2128   1.079       .  S
C2116      C3069   1.371       .  A
C2117      C2317   1.473       .  S
C2118      C2305   1.491       .  S
C2119      C2290   1.476       .  S
C2120      C2329   1.495       .  S
C2131      N2132   1.367       .  A
C2131      N2136   1.350       .  A
N2132      C2133   1.372       .  A
C2133      N2134   1.365       .  A
C2133      C2189   1.478       .  S
N2134      C2135   1.355       .  A
C2135      N2136   1.336       .  A
C2135      C2278   1.466       .  S
C2137      N2138   1.374       .  A
C2137      N2142   1.351       .  A
C2137      C2204   1.474       .  S
N2138      C2139   1.374       .  A
C2139      N2140   1.357       .  A
N2140      C2141   1.349       .  A
C2141      N2142   1.340       .  A
C2141      C2269   1.454       .  S
C2143      N2144   1.349       .  A
C2143      N2148   1.386       .  A
N2144      C2145   1.339       .  A
C2145      N2146   1.347       .  A
C2145      C2257   1.458       .  S
N2146      C2147   1.355       .  A
C2147      N2148   1.386       .  A
C2147      C2209   1.501       .  S
C2149      N2150   1.390       .  A
C2149      N2154   1.357       .  A
C2149      C2197   1.507       .  S
N2150      C2151   1.390       .  A
C2151      N2152   1.358       .  A
N2152      C2153   1.342       .  A
C2153      N2154   1.340       .  A
C2153      C2242   1.465       .  S
N2155      C2160   1.355       .  A
N2155      C3113   1.353       .  A
N2155      H2187   1.040       .  S
N2156      C2163   1.346       .  A
N2157      C2162   1.354       .  A
N2157      C3115   1.360       .  A
N2157      H2188   1.041       .  S
N2158      C2165   1.350       .  A
C2159      N3109   1.351   1_545  A
C2159      C2167   1.382       .  A
C2159      C2175   1.404       .  A
C2160      C2176   1.417       .  A
C2160      C2168   1.389       .  A
C2161      N3111   1.357       .  A
C2161      C2169   1.388       .  A
C2161      C2178   1.419       .  A
C2162      C2177   1.420       .  A
C2162      C2170   1.389       .  A
C2163      C2175   1.399       .  A
C2163      C2171   1.387       .  A
C2164      C2178   1.406       .  A
C2164      C2172   1.387       .  A
C2165      C2173   1.387       .  A
C2165      C2176   1.407       .  A
C2166      C2174   1.383       .  A
C2166      C2177   1.402       .  A
C2167      H2179   1.082       .  S
C2167      C3122   1.371   1_545  A
C2168      H2180   1.083       .  S
C2168      C3121   1.371       .  A
C2169      H2181   1.079       .  S
C2169      C3124   1.349   1_545  A
C2170      H2182   1.074       .  S
C2170      C3123   1.348       .  A
C2171      H2183   1.080       .  S
C2172      H2184   1.082       .  S
C2173      H2185   1.082       .  S
C2174      H2186   1.083       .  S
C2175      C2266   1.483       .  S
C2176      C2245   1.489       .  S
C2177      C2281   1.483       .  S
C2178      C2254   1.479       .  S
C2189      N2207   1.348       .  A
C2189      C2226   1.469       .  S
N2190      N2207   1.323       .  A
N2190      N2212   1.319       .  A
N2190     Co3181   2.088       .  S
C2191      N2216   1.348       .  A
C2191      C2229   1.469       .  S
C2191      H2236   1.079       .  S
H2192      C2233   1.081       .  S
C2193      N2217   1.326       .  A
C2193      C2197   1.458       .  S
C2193      H2222   1.082       .  S
Co2194     N3166   2.098   1_545  S
Co2194     N3156   2.107   1_545  S
Co2194     N2234   2.130       .  S
Co2194     N2210   2.077       .  S
Co2194    Cl2238   2.431       .  S
N2195      C2233   1.361       .  A
N2195      N2202   1.325       .  A
N2195     Co3150   2.119       .  S
Co2196     N3149   2.119   1_545  S
Co2196     N3153   2.130   1_545  S
Co2196     N2216   2.100       .  S
Co2196     N2203   2.110       .  S
Co2196    Cl2238   2.523       .  S
C2197      N2235   1.367       .  A
N2198      N2205   1.319       .  A
N2198      N2228   1.330       .  A
N2198     Co2231   2.091       .  S
N2199      N2217   1.322       .  A
N2199      N2235   1.346       .  A
N2199     Co3150   2.126       .  S
N2200      C2229   1.350       .  A
N2200      N2210   1.314       .  A
H2201      C2226   1.082       .  S
N2202      N2223   1.319       .  A
N2202     Co3148   2.112       .  S
N2203      N2221   1.319       .  A
N2203      N2208   1.331       .  A
C2204      N2208   1.359       .  A
C2204      C2232   1.468       .  S
N2205      C2220   1.337       .  A
N2205     Co3181   2.090       .  S
C2206      N2234   1.359       .  A
C2206      C2209   1.483       .  S
C2206      H2240   1.082       .  S
C2209      N2230   1.358       .  A
N2210      N2216   1.320       .  A
N2211      C2237   1.337       .  A
N2211      N2213   1.316       .  A
N2211     Co2227   2.081       .  S
N2212      C2226   1.351       .  A
N2212     Co3148   2.101       .  S
N2213      N2241   1.336       .  A
N2213     Co3185   2.119       .  S
H2214      C2237   1.082       .  S
H2215      C2232   1.082       .  S
N2217     Co2231   2.097       .  S
N2218      N2230   1.324       .  A
N2218      N2234   1.316       .  A
N2218     Co2227   2.100       .  S
C2219      N2223   1.349       .  A
C2219      C2233   1.477       .  S
C2220      C2239   1.458       .  S
C2220      H2224   1.082       .  S
N2221      C2232   1.332       .  A
N2221     Co3185   2.088       .  S
C2225      N2241   1.363       .  A
C2225      C2237   1.464       .  S
Co2227     N3144   2.087   1_545  S
Co2227     N3159   2.096   1_545  S
Co2227    Cl2238   2.452       .  S
N2228      C2239   1.354       .  A
Co2231     N3167   2.109       .  S
Co2231     N3175   2.079       .  S
Co2231    Cl3192   2.428       .  S
Cl2238    Co3185   2.422       .  S
C2242      C2243   1.408       .  A
C2242      C2247   1.403       .  A
C2243      H2248   1.083       .  S
C2243      C2244   1.413       .  A
C2244      C2245   1.410       .  A
C2244      O2249   1.370       .  S
C2245      C2246   1.401       .  A
C2246      H2250   1.084       .  S
C2246      C2247   1.380       .  A
C2247      O2251   1.374       .  S
O2249      H2253   0.991       .  S
O2251      H2252   0.992       .  S
C2254      C2255   1.406       .  A
C2254      C2259   1.404       .  A
C2255      H2260   1.082       .  S
C2255      C2256   1.392       .  A
C2256      C2257   1.403       .  A
C2256      O2261   1.373       .  S
C2257      C2258   1.405       .  A
C2258      H2262   1.084       .  S
C2258      C2259   1.395       .  A
C2259      O2263   1.371       .  S
O2261      H2265   0.992       .  S
O2263      H2264   0.992       .  S
C2266      C2267   1.414       .  A
C2266      C2271   1.399       .  A
C2267      H2272   1.083       .  S
C2267      C2268   1.397       .  A
C2268      C2269   1.397       .  A
C2268      O2273   1.371       .  S
C2269      C2270   1.403       .  A
C2270      H2274   1.084       .  S
C2270      C2271   1.392       .  A
C2271      O2275   1.367       .  S
O2273      H2277   0.992       .  S
O2275      H2276   0.992       .  S
C2278      C2279   1.399       .  A
C2278      C2283   1.408       .  A
C2279      H2284   1.084       .  S
C2279      C2280   1.393       .  A
C2280      C2281   1.409       .  A
C2280      O2285   1.369       .  S
C2281      C2282   1.399       .  A
C2282      H2286   1.072       .  S
C2282      C2283   1.403       .  A
C2283      O2287   1.370       .  S
O2285      H2289   0.993       .  S
O2287      H2288   0.992       .  S
C2290      C2291   1.398       .  A
C2290      C2295   1.417       .  A
C2291      H2296   1.081       .  S
C2291      C2292   1.398       .  A
C2292      C2293   1.409       .  A
C2292      O2297   1.373       .  S
C2293      C2294   1.390       .  A
C2294      H2298   1.084       .  S
C2294      C2295   1.389       .  A
C2295      O2299   1.370       .  S
O2297      H2301   0.992       .  S
O2299      H2300   0.989       .  S
C2302      C2303   1.393       .  A
C2302      C2307   1.411       .  A
C2303      H2308   1.084       .  S
C2303      C2304   1.396       .  A
C2304      C2305   1.414       .  A
C2304      O2309   1.369       .  S
C2305      C2306   1.401       .  A
C2306      H2310   1.082       .  S
C2306      C2307   1.403       .  A
C2307      O2311   1.372       .  S
O2309      H2313   0.992   1_545  S
O2311      H2312   0.992       .  S
C2314      C2315   1.400       .  A
C2314      C2319   1.411       .  A
C2315      H2320   1.084       .  S
C2315      C2316   1.396       .  A
C2316      C2317   1.411       .  A
C2316      O2321   1.372   1_545  S
C2317      C2318   1.392       .  A
C2318      H2322   1.075       .  S
C2318      C2319   1.390       .  A
C2319      O2323   1.373       .  S
O2321      H2325   0.992       .  S
O2323      H2324   0.991       .  S
C2326      C2327   1.409       .  A
C2326      C2331   1.407       .  A
C2327      H2332   1.083       .  S
C2327      C2328   1.417       .  A
C2328      C2329   1.412       .  A
C2328      O2333   1.372       .  S
C2329      C2330   1.396       .  A
C2330      H2334   1.075       .  S
C2330      C2331   1.378       .  A
C2331      O2335   1.376       .  S
O2333      H2337   0.992       .  S
O2335      H2336   0.992       .  S
C2338      C2339   1.407       .  A
C2338      C2343   1.394       .  A
C2339      H2344   1.084       .  S
C2339      C2340   1.399       .  A
C2340      C2341   1.405       .  A
C2340      O2345   1.371       .  S
C2341      C2342   1.403       .  A
C2342      H2346   1.084       .  S
C2342      C2343   1.394       .  A
C2343      O2347   1.366       .  S
O2345      H2349   0.992       .  S
O2347      H2348   0.992       .  S
C2350      C2351   1.401       .  A
C2350      C2355   1.414       .  A
C2351      H2356   1.081       .  S
C2351      C2352   1.405       .  A
C2352      C2353   1.410       .  A
C2352      O2357   1.371       .  S
C2353      C2354   1.399       .  A
C2354      H2358   1.084       .  S
C2354      C2355   1.400       .  A
C2355      O2359   1.371       .  S
O2357      H2361   0.992       .  S
O2359      H2360   0.991       .  S
C2362      C2363   1.396       .  A
C2362      C2367   1.409       .  A
C2363      H2368   1.085       .  S
C2363      C2364   1.382       .  A
C2364      C2365   1.410       .  A
C2364      O2369   1.376       .  S
C2365      C2366   1.404       .  A
C2366      H2370   1.083       .  S
C2366      C2367   1.409       .  A
C2367      O2371   1.368       .  S
O2369      H2373   0.992       .  S
O2371      H2372   0.990       .  S
C2374      C2375   1.403       .  A
C2374      C2379   1.406       .  A
C2375      H2380   1.083       .  S
C2375      C2376   1.383       .  A
C2376      C2377   1.403       .  A
C2376      O2381   1.374       .  S
C2377      C2378   1.410       .  A
C2378      H2382   1.083       .  S
C2378      C2379   1.417       .  A
C2379      O2383   1.374       .  S
O2381      H2385   0.991       .  S
O2383      H2384   0.991       .  S
C2386      N2404   1.350       .  A
C2386      C2423   1.460       .  S
C2386      C2556   1.460       .  S
N2387      N2404   1.319       .  A
N2387      N2409   1.317       .  A
C2388      N2413   1.349       .  A
C2388      C2426   1.473       .  S
C2388      H2433   1.080       .  S
H2389      C2430   1.081       .  S
C2390      N2414   1.328       .  A
C2390      C2394   1.461       .  S
C2390      H2419   1.081       .  S
Co2391     N2431   2.131       .  S
Co2391     N2407   2.084       .  S
N2392      C2430   1.354       .  A
N2392      N2399   1.322       .  A
N2392     Co2393   2.091       .  S
Co2393     N2396   2.120       .  S
Co2393    Cl2435   2.501       .  S
C2394      N2432   1.363       .  A
C2394      C2550   1.507       .  S
N2395      N2402   1.320       .  A
N2395      N2425   1.337       .  A
N2395     Co2428   2.114       .  S
N2396      N2414   1.323       .  A
N2396      N2432   1.345       .  A
N2397      C2426   1.353       .  A
N2397      N2407   1.316       .  A
H2398      C2423   1.082       .  S
N2399      N2420   1.320       .  A
N2400      N2418   1.319       .  A
N2400      N2405   1.329       .  A
C2401      N2405   1.357       .  A
C2401      C2429   1.475       .  S
C2401      C2570   1.469       .  S
N2402      C2417   1.332       .  A
C2403      N2431   1.359       .  A
C2403      C2406   1.486       .  S
C2403      H2437   1.082       .  S
C2406      N2427   1.345       .  A
C2406      C2562   1.485       .  S
N2407      N2413   1.319       .  A
N2408      C2434   1.334       .  A
N2408      N2410   1.314       .  A
N2408     Co2424   2.065       .  S
N2409      C2423   1.344       .  A
N2410      N2438   1.337       .  A
H2411      C2434   1.082       .  S
H2412      C2429   1.080       .  S
N2414     Co2428   2.108       .  S
N2415      N2427   1.317       .  A
N2415      N2431   1.316       .  A
N2415     Co2424   2.063       .  S
C2416      N2420   1.350       .  A
C2416      C2430   1.468       .  S
C2416      C2445   1.481       .  S
C2417      C2436   1.457       .  S
C2417      H2421   1.082       .  S
N2418      C2429   1.331       .  A
C2422      N2438   1.366       .  A
C2422      C2434   1.456       .  S
C2422      C2453   1.489       .  S
N2425      C2436   1.359       .  A
C2426      C2459   1.468       .  S
Co2428    Cl2435   2.438       .  S
C2436      C2439   1.487       .  S
C2439      N2440   1.360       .  A
C2439      N2444   1.378       .  A
N2440      C2441   1.348       .  A
C2441      N2442   1.345       .  A
C2441      C2851   1.474       .  S
N2442      C2443   1.359       .  A
C2443      N2444   1.377       .  A
C2443      C2527   1.492       .  S
C2445      N2446   1.376       .  A
C2445      N2450   1.357       .  A
N2446      C2447   1.375       .  A
C2447      N2448   1.355       .  A
C2447      C2537   1.482       .  S
N2448      C2449   1.344       .  A
C2449      N2450   1.349       .  A
C2449      C2842   1.465       .  S
C2451      N2452   1.373       .  A
C2451      N2456   1.360       .  A
C2451      C2547   1.486       .  S
N2452      C2453   1.373       .  A
C2453      N2454   1.362       .  A
N2454      C2455   1.354       .  A
C2455      N2456   1.352       .  A
C2455      C2830   1.477       .  S
C2457      N2458   1.370       .  A
C2457      N2462   1.360       .  A
C2457      C2533   1.475       .  S
N2458      C2459   1.367       .  A
C2459      N2460   1.350       .  A
N2460      C2461   1.342       .  A
C2461      N2462   1.355       .  A
C2461      C2818   1.459       .  S
N2463      C2468   1.350       .  A
N2463      H2495   1.043       .  S
N2464      C2472   1.344       .  A
N2465      C2470   1.362       .  A
N2465      H2496   1.040       .  S
N2466      C2474   1.338       .  A
C2467      C2475   1.388       .  A
C2467      C2483   1.399       .  A
C2468      C2484   1.395       .  A
C2468      C2476   1.379       .  A
C2469      C2477   1.384       .  A
C2469      C2486   1.419       .  A
C2470      C2485   1.425       .  A
C2470      C2478   1.386       .  A
C2471      C2483   1.401   1_554  A
C2471      C2479   1.377       .  A
C2472      C2486   1.416       .  A
C2472      C2480   1.393       .  A
C2473      C2481   1.375       .  A
C2473      C2484   1.399   1_554  A
C2474      C2482   1.398       .  A
C2474      C2485   1.419       .  A
C2475      H2487   1.065   1_556  S
C2476      H2488   1.083   1_556  S
C2477      H2489   1.083       .  S
C2478      H2490   1.083       .  S
C2479      H2491   1.083   1_554  S
C2480      H2492   1.081       .  S
C2481      H2493   1.083       .  S
C2482      H2494   1.081       .  S
C2483      C2827   1.491       .  S
C2484      C2815   1.473       .  S
C2485      C2839   1.479       .  S
C2486      C2854   1.485       .  S
C2497      N2515   1.352       .  A
C2497      C2534   1.487       .  S
C2497      C2620   1.492       .  S
N2498      N2515   1.317       .  A
N2498      N2520   1.316       .  A
C2499      N2524   1.361       .  A
C2499      C2537   1.476       .  S
C2499      H2544   1.081       .  S
H2500      C2541   1.081       .  S
C2501      N2525   1.327       .  A
C2501      C2505   1.469       .  S
C2501      H2530   1.082       .  S
Co2502     N2542   2.090   1_455  S
Co2502     N2518   2.076   1_455  S
Co2502    Cl2546   2.459       .  S
N2503      C2541   1.365       .  A
N2503      N2510   1.319       .  A
Co2504     N2524   2.125   1_455  S
Co2504     N2511   2.127   1_455  S
Co2504    Cl2546   2.497       .  S
C2505      N2543   1.360       .  A
C2505      C2608   1.470       .  S
N2506      N2513   1.311       .  A
N2506      N2536   1.333       .  A
N2507      N2525   1.314       .  A
N2507      N2543   1.329       .  A
N2508      C2537   1.346       .  A
N2508      N2518   1.311       .  A
H2509      C2534   1.074       .  S
N2510      N2531   1.309       .  A
N2511      N2529   1.321       .  A
N2511      N2516   1.346       .  A
C2512      N2516   1.367       .  A
C2512      C2540   1.457       .  S
C2512      C2628   1.507       .  S
N2513      C2528   1.338       .  A
C2514      N2542   1.353       .  A
C2514      C2517   1.469       .  S
C2514      H2548   1.082       .  S
C2517      N2538   1.351       .  A
C2517      C2616   1.478       .  S
N2518      N2524   1.323       .  A
N2519      C2545   1.342       .  A
N2519      N2521   1.319       .  A
N2519     Co2535   2.102   1_655  S
N2520      C2534   1.359       .  A
N2521      N2549   1.328       .  A
N2521     Co2539   2.092   1_655  S
H2522      C2545   1.082       .  S
H2523      C2540   1.082       .  S
N2526      N2538   1.319       .  A
N2526      N2542   1.317       .  A
N2526     Co2535   2.091   1_655  S
C2527      N2531   1.346       .  A
C2527      C2541   1.486       .  S
C2528      C2547   1.464       .  S
C2528      H2532   1.082       .  S
N2529      C2540   1.326       .  A
N2529     Co2539   2.096   1_655  S
C2533      N2549   1.352       .  A
C2533      C2545   1.466       .  S
Co2535    Cl2546   2.431       .  S
N2536      C2547   1.360       .  A
Co2539    Cl2546   2.421       .  S
C2550      N2551   1.354       .  A
C2550      N2555   1.385       .  A
N2551      C2552   1.343       .  A
C2552      N2553   1.347       .  A
C2552      C2803   1.472       .  S
N2553      C2554   1.361       .  A
C2554      N2555   1.388       .  A
C2554      C2696   1.500       .  S
C2556      N2557   1.366       .  A
C2556      N2561   1.355       .  A
N2557      C2558   1.365       .  A
C2558      N2559   1.352       .  A
C2558      C2706   1.458       .  S
N2559      C2560   1.340       .  A
C2560      N2561   1.348       .  A
C2560      C2791   1.457       .  S
C2562      N2563   1.360       .  A
C2562      N2567   1.374       .  A
N2563      C2564   1.349       .  A
C2564      N2565   1.350       .  A
C2564      C2779   1.475       .  S
N2565      C2566   1.359       .  A
C2566      N2567   1.375       .  A
C2566      C2702   1.484       .  S
C2568      N2569   1.372       .  A
C2568      N2573   1.359       .  A
C2568      C2716   1.477       .  S
N2569      C2570   1.369       .  A
C2570      N2571   1.348       .  A
N2571      C2572   1.336       .  A
C2572      N2573   1.353       .  A
C2572      C2770   1.452       .  S
N2574      C2578   1.353       .  A
N2574      H2606   1.044       .  S
N2575      C3536   1.348       .  A
N2575      C2583   1.342       .  A
N2576      C2580   1.363       .  A
N2576      H2607   1.041       .  S
N2577      C3538   1.356       .  A
N2577      C2585   1.336       .  A
C2578      C2586   1.381       .  A
C2578      C2594   1.403       .  A
C2579      C2595   1.401       .  A
C2579      C2587   1.382       .  A
C2580      C2588   1.386       .  A
C2580      C2597   1.427       .  A
C2581      C2596   1.410       .  A
C2581      C2589   1.381   1_556  A
C2582      N3529   1.348   1_545  A
C2582      C2594   1.403       .  A
C2582      C2590   1.379   1_545  A
C2583      C2597   1.417       .  A
C2583      C2591   1.393       .  A
C2584      N3531   1.356   1_545  A
C2584      C2592   1.376   1_545  A
C2584      C2595   1.409       .  A
C2585      C2593   1.396       .  A
C2585      C2596   1.411       .  A
C2586      H2598   1.082       .  S
C2587      H2599   1.083       .  S
C2588      H2600   1.083       .  S
C2589      H2601   1.083   1_554  S
C2590      H2602   1.083   1_565  S
C2590      C3545   1.371       .  A
C2591      H2603   1.078       .  S
C2591      C3544   1.373       .  A
C2592      H2604   1.081   1_565  S
C2592      C3547   1.369       .  A
C2593      H2605   1.079       .  S
C2593      C3546   1.370       .  A
C2594      C2794   1.472       .  S
C2595      C2782   1.500       .  S
C2596      C2767   1.478       .  S
C2597      C2806   1.495       .  S
C2608      N2609   1.365       .  A
C2608      N2613   1.349       .  A
N2609      C2610   1.372       .  A
C2610      N2611   1.367       .  A
C2610      C2666   1.473       .  S
N2611      C2612   1.355       .  A
C2612      N2613   1.333       .  A
C2612      C2755   1.464       .  S
C2614      N2615   1.375       .  A
C2614      N2619   1.352       .  A
C2614      C2681   1.475       .  S
N2615      C2616   1.375       .  A
C2616      N2617   1.356       .  A
N2617      C2618   1.346       .  A
C2618      N2619   1.339       .  A
C2618      C2746   1.451       .  S
C2620      N2621   1.351       .  A
C2620      N2625   1.384       .  A
N2621      C2622   1.339       .  A
C2622      N2623   1.349       .  A
C2622      C2734   1.468       .  S
N2623      C2624   1.360       .  A
C2624      N2625   1.384       .  A
C2624      C2686   1.501       .  S
C2626      N2627   1.390       .  A
C2626      N2631   1.355       .  A
C2626      C2674   1.507       .  S
N2627      C2628   1.391       .  A
C2628      N2629   1.360       .  A
N2629      C2630   1.339       .  A
C2630      N2631   1.337       .  A
C2630      C2719   1.464       .  S
N2632      C2637   1.355       .  A
N2632      C3590   1.352       .  A
N2632      H2664   1.039       .  S
N2633      C2640   1.348       .  A
N2634      C2639   1.354       .  A
N2634      C3592   1.358       .  A
N2634      H2665   1.041       .  S
N2635      C2642   1.350       .  A
C2636      N3586   1.351       .  A
C2636      C2644   1.383       .  A
C2636      C2652   1.405       .  A
C2637      C2653   1.417       .  A
C2637      C2645   1.389       .  A
C2638      N3588   1.357   1_545  A
C2638      C2646   1.388       .  A
C2638      C2655   1.418       .  A
C2639      C2654   1.420       .  A
C2639      C2647   1.389       .  A
C2640      C2652   1.401       .  A
C2640      C2648   1.387       .  A
C2641      C2655   1.406       .  A
C2641      C2649   1.385       .  A
C2642      C2650   1.387       .  A
C2642      C2653   1.405       .  A
C2643      C2651   1.382       .  A
C2643      C2654   1.402       .  A
C2644      H2656   1.082       .  S
C2644      C3599   1.372   1_545  A
C2645      H2657   1.083       .  S
C2645      C3598   1.371       .  A
C2646      H2658   1.080       .  S
C2646      C3601   1.352   1_545  A
C2647      H2659   1.073       .  S
C2647      C3600   1.350       .  A
C2648      H2660   1.081       .  S
C2649      H2661   1.082       .  S
C2650      H2662   1.081       .  S
C2651      H2663   1.083       .  S
C2652      C2743   1.483       .  S
C2653      C2722   1.490       .  S
C2654      C2758   1.482       .  S
C2655      C2731   1.485       .  S
C2666      N2684   1.347       .  A
C2666      C2703   1.468       .  S
N2667      N2684   1.321       .  A
N2667      N2689   1.320       .  A
N2667     Co3658   2.080       .  S
C2668      N2693   1.345       .  A
C2668      C2706   1.468       .  S
C2668      H2713   1.077       .  S
H2669      C2710   1.081       .  S
C2670      N2694   1.324       .  A
C2670      C2674   1.459       .  S
C2670      H2699   1.082       .  S
Co2671     N3643   2.097   1_545  S
Co2671     N3633   2.117   1_545  S
Co2671     N2711   2.137       .  S
Co2671     N2687   2.076       .  S
Co2671    Cl2715   2.429       .  S
N2672      C2710   1.364       .  A
N2672      N2679   1.324       .  A
N2672     Co3627   2.129       .  S
Co2673     N3626   2.124   1_545  S
Co2673     N3630   2.131   1_545  S
Co2673     N2693   2.098       .  S
Co2673     N2680   2.110       .  S
Co2673    Cl2715   2.525       .  S
C2674      N2712   1.366       .  A
N2675      N2682   1.320       .  A
N2675      N2705   1.330       .  A
N2675     Co2708   2.090       .  S
N2676      N2694   1.322       .  A
N2676      N2712   1.346       .  A
N2676     Co3627   2.125       .  S
N2677      C2706   1.351       .  A
N2677      N2687   1.314       .  A
H2678      C2703   1.082       .  S
N2679      N2700   1.320       .  A
N2679     Co3625   2.111       .  S
N2680      N2698   1.318       .  A
N2680      N2685   1.333       .  A
C2681      N2685   1.360       .  A
C2681      C2709   1.466       .  S
N2682      C2697   1.340       .  A
N2682     Co3658   2.101       .  S
C2683      N2711   1.362       .  A
C2683      C2686   1.486       .  S
C2683      H2717   1.082       .  S
C2686      N2707   1.352       .  A
N2687      N2693   1.319       .  A
N2688      C2714   1.335       .  A
N2688      N2690   1.315       .  A
N2688     Co2704   2.077       .  S
N2689      C2703   1.350       .  A
N2689     Co3625   2.101       .  S
N2690      N2718   1.334       .  A
N2690     Co3662   2.111       .  S
H2691      C2714   1.082       .  S
H2692      C2709   1.082       .  S
N2694     Co2708   2.098       .  S
N2695      N2707   1.322       .  A
N2695      N2711   1.315       .  A
N2695     Co2704   2.080       .  S
C2696      N2700   1.350       .  A
C2696      C2710   1.482       .  S
C2697      C2716   1.462       .  S
C2697      H2701   1.082       .  S
N2698      C2709   1.330       .  A
N2698     Co3662   2.084       .  S
C2702      N2718   1.361       .  A
C2702      C2714   1.464       .  S
Co2704     N3621   2.085   1_545  S
Co2704     N3636   2.085   1_545  S
Co2704    Cl2715   2.448       .  S
N2705      C2716   1.353       .  A
Co2708     N3644   2.111       .  S
Co2708     N3652   2.078       .  S
Co2708    Cl3669   2.426       .  S
Cl2715    Co3662   2.415       .  S
C2719      C2720   1.407       .  A
C2719      C2724   1.402       .  A
C2720      H2725   1.083       .  S
C2720      C2721   1.412       .  A
C2721      C2722   1.408       .  A
C2721      O2726   1.370       .  S
C2722      C2723   1.403       .  A
C2723      H2727   1.084       .  S
C2723      C2724   1.383       .  A
C2724      O2728   1.374       .  S
O2726      H2730   0.991       .  S
O2728      H2729   0.992       .  S
C2731      C2732   1.405       .  A
C2731      C2736   1.406       .  A
C2732      H2737   1.083       .  S
C2732      C2733   1.392       .  A
C2733      C2734   1.407       .  A
C2733      O2738   1.372       .  S
C2734      C2735   1.405       .  A
C2735      H2739   1.084       .  S
C2735      C2736   1.400       .  A
C2736      O2740   1.371       .  S
O2738      H2742   0.992       .  S
O2740      H2741   0.991       .  S
C2743      C2744   1.412       .  A
C2743      C2748   1.400       .  A
C2744      H2749   1.083       .  S
C2744      C2745   1.393       .  A
C2745      C2746   1.396       .  A
C2745      O2750   1.371       .  S
C2746      C2747   1.403       .  A
C2747      H2751   1.084       .  S
C2747      C2748   1.394       .  A
C2748      O2752   1.367       .  S
O2750      H2754   0.991       .  S
O2752      H2753   0.992       .  S
C2755      C2756   1.401       .  A
C2755      C2760   1.407       .  A
C2756      H2761   1.084       .  S
C2756      C2757   1.393       .  A
C2757      C2758   1.409       .  A
C2757      O2762   1.371       .  S
C2758      C2759   1.400       .  A
C2759      H2763   1.074       .  S
C2759      C2760   1.403       .  A
C2760      O2764   1.371       .  S
O2762      H2766   0.992       .  S
O2764      H2765   0.992       .  S
C2767      C2768   1.397       .  A
C2767      C2772   1.418       .  A
C2768      H2773   1.081       .  S
C2768      C2769   1.397       .  A
C2769      C2770   1.408       .  A
C2769      O2774   1.374       .  S
C2770      C2771   1.391       .  A
C2771      H2775   1.084       .  S
C2771      C2772   1.392       .  A
C2772      O2776   1.370   1_556  S
O2774      H2778   0.992       .  S
O2776      H2777   0.990   1_554  S
C2779      C2780   1.395       .  A
C2779      C2784   1.410       .  A
C2780      H2785   1.084       .  S
C2780      C2781   1.399       .  A
C2781      C2782   1.417       .  A
C2781      O2786   1.369   1_545  S
C2782      C2783   1.403       .  A
C2783      H2787   1.082       .  S
C2783      C2784   1.405       .  A
C2784      O2788   1.371       .  S
O2786      H2790   0.992       .  S
O2788      H2789   0.992       .  S
C2791      C2792   1.400       .  A
C2791      C2796   1.410       .  A
C2792      H2797   1.084       .  S
C2792      C2793   1.397       .  A
C2793      C2794   1.411       .  A
C2793      O2798   1.372   1_545  S
C2794      C2795   1.389       .  A
C2795      H2799   1.072       .  S
C2795      C2796   1.388       .  A
C2796      O2800   1.372       .  S
O2798      H2802   0.992       .  S
O2800      H2801   0.992       .  S
C2803      C2804   1.409       .  A
C2803      C2808   1.406       .  A
C2804      H2809   1.083       .  S
C2804      C2805   1.418       .  A
C2805      C2806   1.413       .  A
C2805      O2810   1.373       .  S
C2806      C2807   1.395       .  A
C2807      H2811   1.074       .  S
C2807      C2808   1.378       .  A
C2808      O2812   1.377       .  S
O2810      H2814   0.992       .  S
O2812      H2813   0.992       .  S
C2815      C2816   1.407       .  A
C2815      C2820   1.395       .  A
C2816      H2821   1.084   1_556  S
C2816      C2817   1.400       .  A
C2817      C2818   1.406       .  A
C2817      O2822   1.372       .  S
C2818      C2819   1.403       .  A
C2819      H2823   1.084       .  S
C2819      C2820   1.393       .  A
C2820      O2824   1.366       .  S
O2822      H2826   0.992       .  S
O2824      H2825   0.992       .  S
C2827      C2828   1.400       .  A
C2827      C2832   1.413       .  A
C2828      H2833   1.082       .  S
C2828      C2829   1.403       .  A
C2829      C2830   1.410       .  A
C2829      O2834   1.371       .  S
C2830      C2831   1.401       .  A
C2831      H2835   1.084       .  S
C2831      C2832   1.404       .  A
C2832      O2836   1.372       .  S
O2834      H2838   0.991       .  S
O2836      H2837   0.991       .  S
C2839      C2840   1.395       .  A
C2839      C2844   1.412       .  A
C2840      H2845   1.085       .  S
C2840      C2841   1.380       .  A
C2841      C2842   1.409       .  A
C2841      O2846   1.376       .  S
C2842      C2843   1.404       .  A
C2843      H2847   1.083       .  S
C2843      C2844   1.409       .  A
C2844      O2848   1.371       .  S
O2846      H2850   0.992       .  S
O2848      H2849   0.990       .  S
C2851      C2852   1.403       .  A
C2851      C2856   1.409       .  A
C2852      H2857   1.083       .  S
C2852      C2853   1.385       .  A
C2853      C2854   1.404       .  A
C2853      O2858   1.374       .  S
C2854      C2855   1.410       .  A
C2855      H2859   1.082       .  S
C2855      C2856   1.412       .  A
C2856      O2860   1.371       .  S
O2858      H2862   0.991       .  S
O2860      H2861   0.991       .  S
C2863      N2881   1.351       .  A
C2863      C2900   1.461       .  S
C2863      C3033   1.464       .  S
N2864      N2881   1.319       .  A
N2864      N2886   1.317       .  A
N2864     Co3378   2.094   1_554  S
C2865      N2890   1.351       .  A
C2865      C2903   1.476       .  S
C2865      H2910   1.080       .  S
H2866      C2907   1.081       .  S
C2867      N2891   1.323       .  A
C2867      C2871   1.455       .  S
C2867      H2896   1.080       .  S
Co2868     N3363   2.078       .  S
Co2868     N3353   2.120       .  S
Co2868     N2908   2.121       .  S
Co2868     N2884   2.080       .  S
Co2868    Cl3389   2.443       .  S
N2869      C2907   1.355       .  A
N2869      N2876   1.323       .  A
N2869     Co2870   2.104   1_554  S
Co2870     N2873   2.116   1_556  S
Co2870     N3367   2.116       .  S
Co2870     N3354   2.098       .  S
Co2870    Cl2912   2.499       .  S
C2871      N2909   1.363       .  A
C2871      C3027   1.498       .  S
N2872      N2879   1.319       .  A
N2872      N2902   1.336       .  A
N2872     Co2905   2.109   1_554  S
N2873      N2891   1.322       .  A
N2873      N2909   1.344       .  A
N2874      C2903   1.352       .  A
N2874      N2884   1.315       .  A
H2875      C2900   1.082       .  S
N2876      N2897   1.323       .  A
N2876     Co3345   2.114   1_554  S
N2877      N2895   1.319       .  A
N2877      N2882   1.328       .  A
N2877     Co3347   2.091       .  S
C2878      N2882   1.356       .  A
C2878      C2906   1.474       .  S
C2878      C3047   1.466       .  S
N2879      C2894   1.332       .  A
N2879     Co3378   2.083   1_554  S
C2880      N2908   1.357       .  A
C2880      C2883   1.484       .  S
C2880      H2914   1.082       .  S
C2883      N2904   1.347       .  A
C2883      C3039   1.482       .  S
N2884      N2890   1.317       .  A
N2885      C2911   1.336       .  A
N2885      N2887   1.313       .  A
N2885     Co2901   2.068       .  S
N2886      C2900   1.346       .  A
N2886     Co3345   2.069   1_554  S
N2887      N2915   1.337       .  A
N2887     Co3382   2.127       .  S
H2888      C2911   1.082       .  S
H2889      C2906   1.081       .  S
N2890     Co3347   2.107       .  S
N2891     Co2905   2.094   1_554  S
N2892      N2904   1.316       .  A
N2892      N2908   1.315       .  A
N2892     Co2901   2.068       .  S
C2893      N2897   1.351       .  A
C2893      C2907   1.471       .  S
C2893      C2922   1.488       .  S
C2894      C2913   1.458       .  S
C2894      H2898   1.082       .  S
N2895      C2906   1.331       .  A
N2895     Co3382   2.094       .  S
C2899      N2915   1.366       .  A
C2899      C2911   1.459       .  S
C2899      C2930   1.492       .  S
Co2901     N3341   2.084       .  S
Co2901     N3356   2.085       .  S
Co2901    Cl3389   2.421       .  S
N2902      C2913   1.357       .  A
C2903      C2936   1.470       .  S
Co2905     N3364   2.126       .  S
Co2905     N3372   2.086       .  S
Co2905    Cl2912   2.439       .  S
Cl2912    Co3345   2.444       .  S
Cl2912    Co3378   2.420       .  S
C2913      C2916   1.483       .  S
C2916      N2917   1.359       .  A
C2916      N2921   1.378       .  A
N2917      C2918   1.347       .  A
C2918      N2919   1.347       .  A
C2918      C3328   1.474       .  S
N2919      C2920   1.359       .  A
C2920      N2921   1.376       .  A
C2920      C3004   1.492       .  S
C2922      N2923   1.378       .  A
C2922      N2927   1.360       .  A
N2923      C2924   1.376       .  A
C2924      N2925   1.355       .  A
C2924      C3014   1.486       .  S
N2925      C2926   1.344       .  A
C2926      N2927   1.352       .  A
C2926      C3319   1.469       .  S
C2928      N2929   1.375       .  A
C2928      N2933   1.358       .  A
C2928      C3024   1.489       .  S
N2929      C2930   1.375       .  A
C2930      N2931   1.362       .  A
N2931      C2932   1.355       .  A
C2932      N2933   1.351       .  A
C2932      C3307   1.475       .  S
C2934      N2935   1.372       .  A
C2934      N2939   1.360       .  A
C2934      C3010   1.476       .  S
N2935      C2936   1.368       .  A
C2936      N2937   1.351       .  A
N2937      C2938   1.341       .  A
C2938      N2939   1.354       .  A
C2938      C3295   1.460       .  S
N2940      C2945   1.349       .  A
N2940      H2972   1.043       .  S
N2941      C3425   1.355       .  A
N2941      C2949   1.343       .  A
N2942      C2947   1.362       .  A
N2942      H2973   1.040       .  S
N2943      C3427   1.354       .  A
N2943      C2951   1.340       .  A
C2944      C2952   1.389       .  A
C2944      C2960   1.403       .  A
C2945      C2961   1.397       .  A
C2945      C2953   1.379       .  A
C2946      C2954   1.384       .  A
C2946      C2963   1.422       .  A
C2947      C2962   1.426       .  A
C2947      C2955   1.387       .  A
C2948      N3418   1.352       .  A
C2948      C2960   1.403       .  A
C2948      C2956   1.381       .  A
C2949      C2963   1.415       .  A
C2949      C2957   1.394       .  A
C2950      N3420   1.353       .  A
C2950      C2958   1.376       .  A
C2950      C2961   1.399       .  A
C2951      C2959   1.399       .  A
C2951      C2962   1.421       .  A
C2952      H2964   1.064       .  S
C2953      H2965   1.083       .  S
C2954      H2966   1.083       .  S
C2955      H2967   1.083       .  S
C2956      H2968   1.083       .  S
C2956      C3434   1.365       .  A
C2957      H2969   1.080       .  S
C2957      C3433   1.364       .  A
C2958      H2970   1.083       .  S
C2958      C3436   1.371       .  A
C2959      H2971   1.078       .  S
C2959      C3435   1.369       .  A
C2960      C3304   1.489       .  S
C2961      C3292   1.474       .  S
C2962      C3316   1.481       .  S
C2963      C3331   1.484       .  S
C2974      N2992   1.353       .  A
C2974      C3011   1.485       .  S
C2974      C3097   1.491       .  S
N2975      N2992   1.319       .  A
N2975      N2997   1.317       .  A
C2976      N3001   1.364       .  A
C2976      C3014   1.480       .  S
C2976      H3021   1.081       .  S
H2977      C3018   1.081       .  S
C2978      N3002   1.330       .  A
C2978      C2982   1.474       .  S
C2978      H3007   1.083       .  S
Co2979     N3019   2.084   1_455  S
Co2979     N2995   2.072   1_455  S
Co2979    Cl3023   2.455       .  S
N2980      C3018   1.364       .  A
N2980      N2987   1.318       .  A
Co2981     N3001   2.124   1_455  S
Co2981     N2988   2.127   1_455  S
Co2981    Cl3023   2.498       .  S
C2982      N3020   1.357       .  A
C2982      C3085   1.470       .  S
N2983      N2990   1.312       .  A
N2983      N3013   1.334       .  A
N2984      N3002   1.315       .  A
N2984      N3020   1.328       .  A
N2985      C3014   1.344       .  A
N2985      N2995   1.309       .  A
H2986      C3011   1.073       .  S
N2987      N3008   1.308       .  A
N2988      N3006   1.322       .  A
N2988      N2993   1.346       .  A
C2989      N2993   1.366       .  A
C2989      C3017   1.459       .  S
C2989      C3105   1.509       .  S
N2990      C3005   1.338       .  A
C2991      N3019   1.351       .  A
C2991      C2994   1.466       .  S
C2991      H3025   1.081       .  S
C2994      N3015   1.353       .  A
C2994      C3093   1.480       .  S
N2995      N3001   1.321       .  A
N2996      C3022   1.341       .  A
N2996      N2998   1.320       .  A
N2996     Co3012   2.103   1_655  S
N2997      C3011   1.358       .  A
N2998      N3026   1.329       .  A
N2998     Co3016   2.094   1_655  S
H2999      C3022   1.082       .  S
H3000      C3017   1.082       .  S
N3003      N3015   1.321       .  A
N3003      N3019   1.318       .  A
N3003     Co3012   2.100   1_655  S
C3004      N3008   1.346       .  A
C3004      C3018   1.484       .  S
C3005      C3024   1.465       .  S
C3005      H3009   1.082       .  S
N3006      C3017   1.328       .  A
N3006     Co3016   2.103   1_655  S
C3010      N3026   1.352       .  A
C3010      C3022   1.466       .  S
Co3012    Cl3023   2.432       .  S
N3013      C3024   1.360       .  A
Co3016    Cl3023   2.425       .  S
C3027      N3028   1.354       .  A
C3027      N3032   1.381       .  A
N3028      C3029   1.342       .  A
C3029      N3030   1.346       .  A
C3029      C3280   1.472       .  S
N3030      C3031   1.361       .  A
C3031      N3032   1.384       .  A
C3031      C3173   1.491       .  S
C3033      N3034   1.368       .  A
C3033      N3038   1.354       .  A
N3034      C3035   1.368       .  A
C3035      N3036   1.350       .  A
C3035      C3183   1.461       .  S
N3036      C3037   1.342       .  A
C3037      N3038   1.347       .  A
C3037      C3268   1.458       .  S
C3039      N3040   1.357       .  A
C3039      N3044   1.375       .  A
N3040      C3041   1.345       .  A
C3041      N3042   1.349       .  A
C3041      C3256   1.469       .  S
N3042      C3043   1.359       .  A
C3043      N3044   1.376       .  A
C3043      C3179   1.485       .  S
C3045      N3046   1.371       .  A
C3045      N3050   1.360       .  A
C3045      C3193   1.473       .  S
N3046      C3047   1.368       .  A
C3047      N3048   1.347       .  A
N3048      C3049   1.334       .  A
C3049      N3050   1.353       .  A
C3049      C3247   1.451       .  S
N3051      C3533   1.340   1_554  A
N3051      C3055   1.354       .  A
N3051      H3083   1.044       .  S
N3052      C3060   1.343       .  A
N3053      C3535   1.355   1_554  A
N3053      C3057   1.362       .  A
N3053      H3084   1.041       .  S
N3054      C3062   1.334       .  A
C3055      C3063   1.382       .  A
C3055      C3071   1.405       .  A
C3056      N3528   1.341       .  A
C3056      C3072   1.398       .  A
C3056      C3064   1.382       .  A
C3057      C3065   1.387       .  A
C3057      C3074   1.427       .  A
C3058      N3530   1.355       .  A
C3058      C3073   1.411       .  A
C3058      C3066   1.381       .  A
C3059      C3071   1.406       .  A
C3059      C3067   1.382       .  A
C3060      C3074   1.419       .  A
C3060      C3068   1.394       .  A
C3061      C3069   1.377       .  A
C3061      C3072   1.410       .  A
C3062      C3070   1.396       .  A
C3062      C3073   1.413       .  A
C3063      H3075   1.082       .  S
C3063      C3541   1.372   1_554  A
C3064      H3076   1.083       .  S
C3064      C3540   1.372       .  A
C3065      H3077   1.083       .  S
C3065      C3543   1.378       .  A
C3066      H3078   1.083       .  S
C3066      C3542   1.379       .  A
C3067      H3079   1.083       .  S
C3068      H3080   1.078       .  S
C3069      H3081   1.082       .  S
C3070      H3082   1.078       .  S
C3071      C3271   1.474       .  S
C3072      C3259   1.497       .  S
C3073      C3244   1.477       .  S
C3074      C3283   1.496       .  S
C3085      N3086   1.369       .  A
C3085      N3090   1.349       .  A
N3086      C3087   1.373       .  A
C3087      N3088   1.363       .  A
C3087      C3143   1.477       .  S
N3088      C3089   1.353       .  A
C3089      N3090   1.332       .  A
C3089      C3232   1.462       .  S
C3091      N3092   1.375       .  A
C3091      N3096   1.354       .  A
C3091      C3158   1.477       .  S
N3092      C3093   1.374       .  A
C3093      N3094   1.355       .  A
N3094      C3095   1.347       .  A
C3095      N3096   1.342       .  A
C3095      C3223   1.459       .  S
C3097      N3098   1.351       .  A
C3097      N3102   1.383       .  A
N3098      C3099   1.341       .  A
C3099      N3100   1.351       .  A
C3099      C3211   1.469       .  S
N3100      C3101   1.361       .  A
C3101      N3102   1.384       .  A
C3101      C3163   1.503       .  S
C3103      N3104   1.392       .  A
C3103      N3108   1.355       .  A
C3103      C3151   1.513       .  S
N3104      C3105   1.394       .  A
C3105      N3106   1.360       .  A
N3106      C3107   1.339       .  A
C3107      N3108   1.335       .  A
C3107      C3196   1.463       .  S
N3109      C3114   1.355       .  A
N3109      H3141   1.038   1_565  S
N3110      C3117   1.345       .  A
N3111      C3116   1.358   1_545  A
N3111      H3142   1.040       .  S
N3112      C3119   1.349       .  A
C3113      C3121   1.383       .  A
C3113      C3129   1.407       .  A
C3114      C3130   1.416       .  A
C3114      C3122   1.388       .  A
C3115      C3123   1.385       .  A
C3115      C3132   1.416       .  A
C3116      C3131   1.421       .  A
C3116      C3124   1.387       .  A
C3117      C3129   1.399       .  A
C3117      C3125   1.387       .  A
C3118      C3132   1.405       .  A
C3118      C3126   1.382       .  A
C3119      C3127   1.388       .  A
C3119      C3130   1.404       .  A
C3120      C3128   1.382       .  A
C3120      C3131   1.398       .  A
C3121      H3133   1.083       .  S
C3122      H3134   1.083       .  S
C3123      H3135   1.079       .  S
C3124      H3136   1.073       .  S
C3125      H3137   1.079       .  S
C3126      H3138   1.082       .  S
C3127      H3139   1.081       .  S
C3128      H3140   1.083       .  S
C3129      C3220   1.486       .  S
C3130      C3199   1.491       .  S
C3131      C3235   1.484       .  S
C3132      C3208   1.491       .  S
C3143      N3161   1.348       .  A
C3143      C3180   1.470       .  S
N3144      N3161   1.321       .  A
N3144      N3166   1.319       .  A
C3145      N3170   1.346       .  A
C3145      C3183   1.465       .  S
C3145      H3190   1.079       .  S
H3146      C3187   1.081       .  S
C3147      N3171   1.323       .  A
C3147      C3151   1.460       .  S
C3147      H3176   1.082       .  S
Co3148     N3188   2.141       .  S
Co3148     N3164   2.089       .  S
Co3148    Cl3192   2.436       .  S
N3149      C3187   1.361       .  A
N3149      N3156   1.325       .  A
Co3150     N3170   2.095       .  S
Co3150     N3157   2.119       .  S
Co3150    Cl3192   2.515       .  S
C3151      N3189   1.369       .  A
N3152      N3159   1.319       .  A
N3152      N3182   1.329       .  A
N3152     Co3185   2.088   1_565  S
N3153      N3171   1.321       .  A
N3153      N3189   1.348       .  A
N3154      C3183   1.353       .  A
N3154      N3164   1.316       .  A
H3155      C3180   1.082       .  S
N3156      N3177   1.319       .  A
N3157      N3175   1.318       .  A
N3157      N3162   1.333       .  A
C3158      N3162   1.362       .  A
C3158      C3186   1.466       .  S
N3159      C3174   1.339       .  A
C3160      N3188   1.362       .  A
C3160      C3163   1.487       .  S
C3160      H3194   1.082       .  S
C3163      N3184   1.353       .  A
N3164      N3170   1.321       .  A
N3165      C3191   1.336       .  A
N3165      N3167   1.314       .  A
N3165     Co3181   2.081       .  S
N3166      C3180   1.352       .  A
N3167      N3195   1.334       .  A
H3168      C3191   1.082       .  S
H3169      C3186   1.082       .  S
N3171     Co3185   2.097   1_565  S
N3172      N3184   1.323       .  A
N3172      N3188   1.317       .  A
N3172     Co3181   2.087       .  S
C3173      N3177   1.348       .  A
C3173      C3187   1.478       .  S
C3174      C3193   1.462       .  S
C3174      H3178   1.082       .  S
N3175      C3186   1.330       .  A
C3179      N3195   1.361       .  A
C3179      C3191   1.466       .  S
Co3181    Cl3192   2.448       .  S
N3182      C3193   1.352       .  A
C3196      C3197   1.406       .  A
C3196      C3201   1.401       .  A
C3197      H3202   1.083       .  S
C3197      C3198   1.411       .  A
C3198      C3199   1.407       .  A
C3198      O3203   1.371       .  S
C3199      C3200   1.405       .  A
C3200      H3204   1.083       .  S
C3200      C3201   1.383       .  A
C3201      O3205   1.373       .  S
O3203      H3207   0.991       .  S
O3205      H3206   0.992       .  S
C3208      C3209   1.406       .  A
C3208      C3213   1.408       .  A
C3209      H3214   1.082       .  S
C3209      C3210   1.396       .  A
C3210      C3211   1.405       .  A
C3210      O3215   1.372       .  S
C3211      C3212   1.405       .  A
C3212      H3216   1.084       .  S
C3212      C3213   1.401       .  A
C3213      O3217   1.370       .  S
O3215      H3219   0.992       .  S
O3217      H3218   0.991       .  S
C3220      C3221   1.412       .  A
C3220      C3225   1.401       .  A
C3221      H3226   1.083       .  S
C3221      C3222   1.398       .  A
C3222      C3223   1.401       .  A
C3222      O3227   1.371       .  S
C3223      C3224   1.402       .  A
C3224      H3228   1.084       .  S
C3224      C3225   1.391       .  A
C3225      O3229   1.366       .  S
O3227      H3231   0.992       .  S
O3229      H3230   0.992       .  S
C3232      C3233   1.401       .  A
C3232      C3237   1.406       .  A
C3233      H3238   1.084       .  S
C3233      C3234   1.397       .  A
C3234      C3235   1.410       .  A
C3234      O3239   1.371       .  S
C3235      C3236   1.399       .  A
C3236      H3240   1.070       .  S
C3236      C3237   1.399       .  A
C3237      O3241   1.371       .  S
O3239      H3243   0.992       .  S
O3241      H3242   0.992       .  S
C3244      C3245   1.398       .  A
C3244      C3249   1.417       .  A
C3245      H3250   1.082       .  S
C3245      C3246   1.398       .  A
C3246      C3247   1.408       .  A
C3246      O3251   1.372       .  S
C3247      C3248   1.392       .  A
C3248      H3252   1.084       .  S
C3248      C3249   1.392       .  A
C3249      O3253   1.371       .  S
O3251      H3255   0.991       .  S
O3253      H3254   0.989       .  S
C3256      C3257   1.393       .  A
C3256      C3261   1.410       .  A
C3257      H3262   1.084       .  S
C3257      C3258   1.398       .  A
C3258      C3259   1.416       .  A
C3258      O3263   1.369       .  S
C3259      C3260   1.403       .  A
C3260      H3264   1.083       .  S
C3260      C3261   1.404       .  A
C3261      O3265   1.372       .  S
O3263      H3267   0.992       .  S
O3265      H3266   0.992       .  S
C3268      C3269   1.400       .  A
C3268      C3273   1.412       .  A
C3269      H3274   1.084       .  S
C3269      C3270   1.396       .  A
C3270      C3271   1.412       .  A
C3270      O3275   1.371       .  S
C3271      C3272   1.392       .  A
C3272      H3276   1.075       .  S
C3272      C3273   1.389       .  A
C3273      O3277   1.373       .  S
O3275      H3279   0.992       .  S
O3277      H3278   0.992       .  S
C3280      C3281   1.407       .  A
C3280      C3285   1.407       .  A
C3281      H3286   1.083       .  S
C3281      C3282   1.417       .  A
C3282      C3283   1.412       .  A
C3282      O3287   1.373       .  S
C3283      C3284   1.397       .  A
C3284      H3288   1.075       .  S
C3284      C3285   1.380       .  A
C3285      O3289   1.377       .  S
O3287      H3291   0.992       .  S
O3289      H3290   0.992       .  S
C3292      C3293   1.407       .  A
C3292      C3297   1.394       .  A
C3293      H3298   1.084       .  S
C3293      C3294   1.399       .  A
C3294      C3295   1.406       .  A
C3294      O3299   1.372       .  S
C3295      C3296   1.405       .  A
C3296      H3300   1.084       .  S
C3296      C3297   1.396       .  A
C3297      O3301   1.367       .  S
O3299      H3303   0.992       .  S
O3301      H3302   0.992       .  S
C3304      C3305   1.398       .  A
C3304      C3309   1.415       .  A
C3305      H3310   1.081       .  S
C3305      C3306   1.402       .  A
C3306      C3307   1.409       .  A
C3306      O3311   1.371       .  S
C3307      C3308   1.401       .  A
C3308      H3312   1.084       .  S
C3308      C3309   1.401       .  A
C3309      O3313   1.372       .  S
O3311      H3315   0.992       .  S
O3313      H3314   0.991       .  S
C3316      C3317   1.395       .  A
C3316      C3321   1.411       .  A
C3317      H3322   1.085       .  S
C3317      C3318   1.382       .  A
C3318      C3319   1.410       .  A
C3318      O3323   1.377       .  S
C3319      C3320   1.405       .  A
C3320      H3324   1.083       .  S
C3320      C3321   1.410       .  A
C3321      O3325   1.370       .  S
O3323      H3327   0.993       .  S
O3325      H3326   0.990       .  S
C3328      C3329   1.403       .  A
C3328      C3333   1.408       .  A
C3329      H3334   1.081       .  S
C3329      C3330   1.384       .  A
C3330      C3331   1.403       .  A
C3330      O3335   1.374       .  S
C3331      C3332   1.412       .  A
C3332      H3336   1.083       .  S
C3332      C3333   1.412       .  A
C3333      O3337   1.371       .  S
O3335      H3339   0.992       .  S
O3337      H3338   0.991       .  S
C3340      N3358   1.348       .  A
C3340      C3377   1.466       .  S
C3340      C3510   1.465       .  S
N3341      N3358   1.317       .  A
N3341      N3363   1.317       .  A
C3342      N3367   1.352       .  A
C3342      C3380   1.479       .  S
C3342      H3387   1.081       .  S
H3343      C3384   1.081       .  S
C3344      N3368   1.325       .  A
C3344      C3348   1.459       .  S
C3344      H3373   1.079       .  S
Co3345     N3385   2.114       .  S
Co3345     N3361   2.077       .  S
N3346      C3384   1.353       .  A
N3346      N3353   1.323       .  A
N3346     Co3347   2.093       .  S
Co3347     N3350   2.116       .  S
Co3347    Cl3389   2.504       .  S
C3348      N3386   1.363       .  A
C3348      C3504   1.505       .  S
N3349      N3356   1.319       .  A
N3349      N3379   1.336       .  A
N3349     Co3382   2.108       .  S
N3350      N3368   1.322       .  A
N3350      N3386   1.345       .  A
N3351      C3380   1.352       .  A
N3351      N3361   1.316       .  A
H3352      C3377   1.082       .  S
N3353      N3374   1.323       .  A
N3354      N3372   1.320       .  A
N3354      N3359   1.328       .  A
C3355      N3359   1.357       .  A
C3355      C3383   1.470       .  S
C3355      C3524   1.465       .  S
N3356      C3371   1.333       .  A
C3357      N3385   1.355       .  A
C3357      C3360   1.482       .  S
C3357      H3391   1.082       .  S
C3360      N3381   1.345       .  A
C3360      C3516   1.475       .  S
N3361      N3367   1.317       .  A
N3362      C3388   1.336       .  A
N3362      N3364   1.313       .  A
N3362     Co3378   2.074       .  S
N3363      C3377   1.348       .  A
N3364      N3392   1.339       .  A
H3365      C3388   1.082       .  S
H3366      C3383   1.082       .  S
N3368     Co3382   2.104       .  S
N3369      N3381   1.314       .  A
N3369      N3385   1.315       .  A
N3369     Co3378   2.060       .  S
C3370      N3374   1.353       .  A
C3370      C3384   1.466       .  S
C3370      C3399   1.483       .  S
C3371      C3390   1.458       .  S
C3371      H3375   1.082       .  S
N3372      C3383   1.329       .  A
C3376      N3392   1.367       .  A
C3376      C3388   1.461       .  S
C3376      C3407   1.496       .  S
N3379      C3390   1.357       .  A
C3380      C3413   1.474       .  S
Co3382    Cl3389   2.435       .  S
C3390      C3393   1.483       .  S
C3393      N3394   1.360       .  A
C3393      N3398   1.377       .  A
N3394      C3395   1.348       .  A
C3395      N3396   1.347       .  A
C3395      C3805   1.475       .  S
N3396      C3397   1.359       .  A
C3397      N3398   1.375       .  A
C3397      C3481   1.492       .  S
C3399      N3400   1.376       .  A
C3399      N3404   1.357       .  A
N3400      C3401   1.376       .  A
C3401      N3402   1.354       .  A
C3401      C3491   1.481       .  S
N3402      C3403   1.344       .  A
C3403      N3404   1.351       .  A
C3403      C3796   1.466       .  S
C3405      N3406   1.378       .  A
C3405      N3410   1.359       .  A
C3405      C3501   1.493       .  S
N3406      C3407   1.378       .  A
C3407      N3408   1.360       .  A
N3408      C3409   1.353       .  A
C3409      N3410   1.351       .  A
C3409      C3784   1.473       .  S
C3411      N3412   1.373       .  A
C3411      N3416   1.358       .  A
C3411      C3487   1.478       .  S
N3412      C3413   1.371       .  A
C3413      N3414   1.351       .  A
N3414      C3415   1.342       .  A
C3415      N3416   1.353       .  A
C3415      C3772   1.458       .  S
N3417      C3422   1.349       .  A
N3417      H3449   1.043       .  S
N3418      C3426   1.343       .  A
N3419      C3424   1.362       .  A
N3419      H3450   1.040       .  S
N3420      C3428   1.340       .  A
C3421      C3429   1.389       .  A
C3421      C3437   1.400       .  A
C3422      C3438   1.395       .  A
C3422      C3430   1.379       .  A
C3423      C3431   1.384       .  A
C3423      C3440   1.423       .  A
C3424      C3439   1.426       .  A
C3424      C3432   1.387       .  A
C3425      C3437   1.403   1_554  A
C3425      C3433   1.380       .  A
C3426      C3440   1.417       .  A
C3426      C3434   1.394       .  A
C3427      C3435   1.375       .  A
C3427      C3438   1.399   1_554  A
C3428      C3436   1.399       .  A
C3428      C3439   1.421       .  A
C3429      H3441   1.068       .  S
C3430      H3442   1.083   1_556  S
C3431      H3443   1.083       .  S
C3432      H3444   1.083       .  S
C3433      H3445   1.083   1_554  S
C3434      H3446   1.081       .  S
C3435      H3447   1.083       .  S
C3436      H3448   1.079       .  S
C3437      C3781   1.490       .  S
C3438      C3769   1.474       .  S
C3439      C3793   1.480       .  S
C3440      C3808   1.488       .  S
C3451      N3469   1.354       .  A
C3451      C3488   1.484       .  S
C3451      C3574   1.490       .  S
N3452      N3469   1.319       .  A
N3452      N3474   1.317       .  A
C3453      N3478   1.361       .  A
C3453      C3491   1.473       .  S
C3453      H3498   1.081       .  S
H3454      C3495   1.081       .  S
C3455      N3479   1.330       .  A
C3455      C3459   1.474       .  S
C3455      H3484   1.083       .  S
Co3456     N3496   2.088   1_455  S
Co3456     N3472   2.084   1_455  S
Co3456    Cl3500   2.459       .  S
N3457      C3495   1.365       .  A
N3457      N3464   1.317       .  A
Co3458     N3478   2.113   1_455  S
Co3458     N3465   2.120   1_455  S
Co3458    Cl3500   2.496       .  S
C3459      N3497   1.356       .  A
C3459      C3562   1.467       .  S
N3460      N3467   1.312       .  A
N3460      N3490   1.336       .  A
N3461      N3479   1.315       .  A
N3461      N3497   1.327       .  A
N3462      C3491   1.347       .  A
N3462      N3472   1.310       .  A
H3463      C3488   1.072       .  S
N3464      N3485   1.308       .  A
N3465      N3483   1.321       .  A
N3465      N3470   1.345       .  A
C3466      N3470   1.365       .  A
C3466      C3494   1.460       .  S
C3466      C3582   1.506       .  S
N3467      C3482   1.339       .  A
C3468      N3496   1.352       .  A
C3468      C3471   1.467       .  S
C3468      H3502   1.081       .  S
C3471      N3492   1.352       .  A
C3471      C3570   1.481       .  S
N3472      N3478   1.322       .  A
N3473      C3499   1.342       .  A
N3473      N3475   1.320       .  A
N3473     Co3489   2.109   1_655  S
N3474      C3488   1.356       .  A
N3475      N3503   1.329       .  A
N3475     Co3493   2.093   1_655  S
H3476      C3499   1.082       .  S
H3477      C3494   1.082       .  S
N3480      N3492   1.322       .  A
N3480      N3496   1.318       .  A
N3480     Co3489   2.100   1_655  S
C3481      N3485   1.345       .  A
C3481      C3495   1.486       .  S
C3482      C3501   1.467       .  S
C3482      H3486   1.082       .  S
N3483      C3494   1.328       .  A
N3483     Co3493   2.104   1_655  S
C3487      N3503   1.352       .  A
C3487      C3499   1.468       .  S
Co3489    Cl3500   2.431       .  S
N3490      C3501   1.362       .  A
Co3493    Cl3500   2.428       .  S
C3504      N3505   1.352       .  A
C3504      N3509   1.385       .  A
N3505      C3506   1.341       .  A
C3506      N3507   1.347       .  A
C3506      C3757   1.472       .  S
N3507      C3508   1.362       .  A
C3508      N3509   1.388       .  A
C3508      C3650   1.499       .  S
C3510      N3511   1.368       .  A
C3510      N3515   1.356       .  A
N3511      C3512   1.368       .  A
C3512      N3513   1.349       .  A
C3512      C3660   1.460       .  S
N3513      C3514   1.340       .  A
C3514      N3515   1.347       .  A
C3514      C3745   1.456       .  S
C3516      N3517   1.358       .  A
C3516      N3521   1.372       .  A
N3517      C3518   1.344       .  A
C3518      N3519   1.349       .  A
C3518      C3733   1.471       .  S
N3519      C3520   1.360       .  A
C3520      N3521   1.373       .  A
C3520      C3656   1.480       .  S
C3522      N3523   1.369       .  A
C3522      N3527   1.360       .  A
C3522      C3670   1.471       .  S
N3523      C3524   1.366       .  A
C3524      N3525   1.349       .  A
N3525      C3526   1.336       .  A
C3526      N3527   1.353       .  A
C3526      C3724   1.453       .  S
N3528      C3532   1.354       .  A
N3528      H3560   1.044       .  S
N3529      C3537   1.341       .  A
N3530      C3534   1.362       .  A
N3530      H3561   1.042       .  S
N3531      C3539   1.334       .  A
C3532      C3540   1.379       .  A
C3532      C3548   1.404       .  A
C3533      C3549   1.398       .  A
C3533      C3541   1.382       .  A
C3534      C3542   1.388       .  A
C3534      C3551   1.427       .  A
C3535      C3550   1.412       .  A
C3535      C3543   1.382   1_556  A
C3536      C3548   1.405       .  A
C3536      C3544   1.381       .  A
C3537      C3551   1.419       .  A
C3537      C3545   1.395       .  A
C3538      C3546   1.377       .  A
C3538      C3549   1.409       .  A
C3539      C3547   1.396       .  A
C3539      C3550   1.412       .  A
C3540      H3552   1.082       .  S
C3541      H3553   1.083       .  S
C3542      H3554   1.082       .  S
C3543      H3555   1.083   1_554  S
C3544      H3556   1.083       .  S
C3545      H3557   1.075       .  S
C3546      H3558   1.082       .  S
C3547      H3559   1.077       .  S
C3548      C3748   1.470       .  S
C3549      C3736   1.498       .  S
C3550      C3721   1.478       .  S
C3551      C3760   1.498       .  S
C3562      N3563   1.368       .  A
C3562      N3567   1.349       .  A
N3563      C3564   1.371       .  A
C3564      N3565   1.363       .  A
C3564      C3620   1.473       .  S
N3565      C3566   1.352       .  A
C3566      N3567   1.333       .  A
C3566      C3709   1.461       .  S
C3568      N3569   1.374       .  A
C3568      N3573   1.353       .  A
C3568      C3635   1.475       .  S
N3569      C3570   1.373       .  A
C3570      N3571   1.357       .  A
N3571      C3572   1.349       .  A
C3572      N3573   1.341       .  A
C3572      C3700   1.455       .  S
C3574      N3575   1.350       .  A
C3574      N3579   1.384       .  A
N3575      C3576   1.340       .  A
C3576      N3577   1.349       .  A
C3576      C3688   1.463       .  S
N3577      C3578   1.357       .  A
C3578      N3579   1.384       .  A
C3578      C3640   1.499       .  S
C3580      N3581   1.391       .  A
C3580      N3585   1.355       .  A
C3580      C3628   1.512       .  S
N3581      C3582   1.394       .  A
C3582      N3583   1.360       .  A
N3583      C3584   1.338       .  A
C3584      N3585   1.334       .  A
C3584      C3673   1.461       .  S
N3586      C3591   1.355   1_545  A
N3586      H3618   1.038       .  S
N3587      C3594   1.347       .  A
N3588      C3593   1.356       .  A
N3588      H3619   1.041       .  S
N3589      C3596   1.348       .  A
C3590      C3598   1.383       .  A
C3590      C3606   1.405       .  A
C3591      C3607   1.416       .  A
C3591      C3599   1.388       .  A
C3592      C3600   1.386       .  A
C3592      C3609   1.415       .  A
C3593      C3608   1.418       .  A
C3593      C3601   1.387       .  A
C3594      C3606   1.399       .  A
C3594      C3602   1.387       .  A
C3595      C3609   1.404       .  A
C3595      C3603   1.384       .  A
C3596      C3604   1.387       .  A
C3596      C3607   1.403       .  A
C3597      C3605   1.381       .  A
C3597      C3608   1.398       .  A
C3598      H3610   1.082       .  S
C3599      H3611   1.083       .  S
C3600      H3612   1.080       .  S
C3601      H3613   1.075       .  S
C3602      H3614   1.080       .  S
C3603      H3615   1.082       .  S
C3604      H3616   1.081       .  S
C3605      H3617   1.083       .  S
C3606      C3697   1.483       .  S
C3607      C3676   1.491       .  S
C3608      C3712   1.482       .  S
C3609      C3685   1.484       .  S
C3620      N3638   1.347       .  A
C3620      C3657   1.469       .  S
N3621      N3638   1.320       .  A
N3621      N3643   1.319       .  A
C3622      N3647   1.346       .  A
C3622      C3660   1.466       .  S
C3622      H3667   1.080       .  S
H3623      C3664   1.081       .  S
C3624      N3648   1.321       .  A
C3624      C3628   1.459       .  S
C3624      H3653   1.082       .  S
Co3625     N3665   2.132       .  S
Co3625     N3641   2.085       .  S
Co3625    Cl3669   2.433       .  S
N3626      C3664   1.363       .  A
N3626      N3633   1.325       .  A
Co3627     N3647   2.094       .  S
Co3627     N3634   2.118       .  S
Co3627    Cl3669   2.517       .  S
C3628      N3666   1.370       .  A
N3629      N3636   1.318       .  A
N3629      N3659   1.329       .  A
N3629     Co3662   2.089   1_565  S
N3630      N3648   1.321       .  A
N3630      N3666   1.348       .  A
N3631      C3660   1.352       .  A
N3631      N3641   1.316       .  A
H3632      C3657   1.082       .  S
N3633      N3654   1.320       .  A
N3634      N3652   1.318       .  A
N3634      N3639   1.332       .  A
C3635      N3639   1.362       .  A
C3635      C3663   1.466       .  S
N3636      C3651   1.338       .  A
C3637      N3665   1.360       .  A
C3637      C3640   1.485       .  S
C3637      H3671   1.082       .  S
C3640      N3661   1.355       .  A
N3641      N3647   1.320       .  A
N3642      C3668   1.333       .  A
N3642      N3644   1.314       .  A
N3642     Co3658   2.068       .  S
N3643      C3657   1.351       .  A
N3644      N3672   1.333       .  A
H3645      C3668   1.082       .  S
H3646      C3663   1.082       .  S
N3648     Co3662   2.094   1_565  S
N3649      N3661   1.323       .  A
N3649      N3665   1.315       .  A
N3649     Co3658   2.090       .  S
C3650      N3654   1.350       .  A
C3650      C3664   1.480       .  S
C3651      C3670   1.459       .  S
C3651      H3655   1.082       .  S
N3652      C3663   1.331       .  A
C3656      N3672   1.361       .  A
C3656      C3668   1.462       .  S
Co3658    Cl3669   2.448       .  S
N3659      C3670   1.353       .  A
C3673      C3674   1.406       .  A
C3673      C3678   1.400       .  A
C3674      H3679   1.083       .  S
C3674      C3675   1.411       .  A
C3675      C3676   1.408       .  A
C3675      O3680   1.371       .  S
C3676      C3677   1.406       .  A
C3677      H3681   1.083       .  S
C3677      C3678   1.384       .  A
C3678      O3682   1.373       .  S
O3680      H3684   0.992       .  S
O3682      H3683   0.992       .  S
C3685      C3686   1.406       .  A
C3685      C3690   1.406       .  A
C3686      H3691   1.083       .  S
C3686      C3687   1.393       .  A
C3687      C3688   1.404       .  A
C3687      O3692   1.373       .  S
C3688      C3689   1.405       .  A
C3689      H3693   1.084       .  S
C3689      C3690   1.398       .  A
C3690      O3694   1.371       .  S
O3692      H3696   0.992       .  S
O3694      H3695   0.992       .  S
C3697      C3698   1.413       .  A
C3697      C3702   1.399       .  A
C3698      H3703   1.084       .  S
C3698      C3699   1.397       .  A
C3699      C3700   1.398       .  A
C3699      O3704   1.371       .  S
C3700      C3701   1.404       .  A
C3701      H3705   1.084       .  S
C3701      C3702   1.394       .  A
C3702      O3706   1.368       .  S
O3704      H3708   0.992       .  S
O3706      H3707   0.991       .  S
C3709      C3710   1.401       .  A
C3709      C3714   1.406       .  A
C3710      H3715   1.084       .  S
C3710      C3711   1.396       .  A
C3711      C3712   1.409       .  A
C3711      O3716   1.371       .  S
C3712      C3713   1.399       .  A
C3713      H3717   1.072       .  S
C3713      C3714   1.398       .  A
C3714      O3718   1.371       .  S
O3716      H3720   0.992       .  S
O3718      H3719   0.992       .  S
C3721      C3722   1.397       .  A
C3721      C3726   1.418       .  A
C3722      H3727   1.081       .  S
C3722      C3723   1.398       .  A
C3723      C3724   1.408       .  A
C3723      O3728   1.372       .  S
C3724      C3725   1.392       .  A
C3725      H3729   1.084       .  S
C3725      C3726   1.392       .  A
C3726      O3730   1.371   1_556  S
O3728      H3732   0.991       .  S
O3730      H3731   0.990   1_554  S
C3733      C3734   1.393       .  A
C3733      C3738   1.411       .  A
C3734      H3739   1.084       .  S
C3734      C3735   1.397       .  A
C3735      C3736   1.417       .  A
C3735      O3740   1.369       .  S
C3736      C3737   1.403       .  A
C3737      H3741   1.083       .  S
C3737      C3738   1.404       .  A
C3738      O3742   1.372       .  S
O3740      H3744   0.992       .  S
O3742      H3743   0.992       .  S
C3745      C3746   1.400       .  A
C3745      C3750   1.410       .  A
C3746      H3751   1.084       .  S
C3746      C3747   1.395       .  A
C3747      C3748   1.410       .  A
C3747      O3752   1.372       .  S
C3748      C3749   1.390       .  A
C3749      H3753   1.072       .  S
C3749      C3750   1.388       .  A
C3750      O3754   1.372       .  S
O3752      H3756   0.992       .  S
O3754      H3755   0.992       .  S
C3757      C3758   1.407       .  A
C3757      C3762   1.408       .  A
C3758      H3763   1.083       .  S
C3758      C3759   1.417       .  A
C3759      C3760   1.413       .  A
C3759      O3764   1.375       .  S
C3760      C3761   1.399       .  A
C3761      H3765   1.077       .  S
C3761      C3762   1.379       .  A
C3762      O3766   1.376       .  S
O3764      H3768   0.992       .  S
O3766      H3767   0.993       .  S
C3769      C3770   1.407       .  A
C3769      C3774   1.395       .  A
C3770      H3775   1.084   1_556  S
C3770      C3771   1.399       .  A
C3771      C3772   1.406       .  A
C3771      O3776   1.372       .  S
C3772      C3773   1.403       .  A
C3773      H3777   1.084       .  S
C3773      C3774   1.393       .  A
C3774      O3778   1.367       .  S
O3776      H3780   0.992       .  S
O3778      H3779   0.992       .  S
C3781      C3782   1.399       .  A
C3781      C3786   1.414       .  A
C3782      H3787   1.082       .  S
C3782      C3783   1.403       .  A
C3783      C3784   1.409       .  A
C3783      O3788   1.371       .  S
C3784      C3785   1.399       .  A
C3785      H3789   1.084       .  S
C3785      C3786   1.400       .  A
C3786      O3790   1.372       .  S
O3788      H3792   0.992       .  S
O3790      H3791   0.991       .  S
C3793      C3794   1.395       .  A
C3793      C3798   1.410       .  A
C3794      H3799   1.085       .  S
C3794      C3795   1.383       .  A
C3795      C3796   1.411       .  A
C3795      O3800   1.378       .  S
C3796      C3797   1.402       .  A
C3797      H3801   1.083       .  S
C3797      C3798   1.410       .  A
C3798      O3802   1.369       .  S
O3800      H3804   0.993       .  S
O3802      H3803   0.991       .  S
C3805      C3806   1.403       .  A
C3805      C3810   1.410       .  A
C3806      H3811   1.082       .  S
C3806      C3807   1.383       .  A
C3807      C3808   1.403       .  A
C3807      O3812   1.374       .  S
C3808      C3809   1.413       .  A
C3809      H3813   1.083       .  S
C3809      C3810   1.414       .  A
C3810      O3814   1.373       .  S
O3812      H3816   0.992       .  S
O3814      H3815   0.991       .  S
