geometry optimzed in LAMMPS
_audit_creation_date              2020-11-30 
_audit_creation_method            'lammps2cif' 
_symmetry_space_group_name_H-M    'P1' 
_symmetry_Int_Tables_number       1 
_symmetry_cell_setting            triclinic 
loop_ 
_symmetry_equiv_pos_as_xyz 
  x,y,z 
_cell_length_a                    32.0569891 
_cell_length_b                    32.05277604012933 
_cell_length_c                    51.55776396903277 
_cell_angle_alpha                 90.17009447272041 
_cell_angle_beta                  90.15281089614237 
_cell_angle_gamma                 120.39684720283542 
loop_ 
_atom_site_label 
_atom_site_type_symbol 
_atom_site_fract_x 
_atom_site_fract_y 
_atom_site_fract_z 
_atom_site_charge 
O1          O  0.09104194  0.29603233  0.32597105    -0.88300
C2          C  0.19924368  0.33792756  0.27278198     0.87800
Mg3        Mg  0.08690725  0.34180194  0.35582058     1.58100
O4          O  0.19104413  0.25725597  0.32152564    -0.88000
O5          O  0.07974548  0.22379704  0.31845077    -0.75300
C6          C  0.30242461  0.43925211  0.41320038     0.92800
O7          O  0.15918657  0.40182959  0.30441291    -0.75100
O8          O  0.26891307  0.44972333  0.41178550    -0.82600
Mg9        Mg  0.10644353  0.32598251  0.28773946     1.58000
C10         C  0.32009163  0.29958861  0.36258348     0.92700
O11         O  0.05252462  0.25632822  0.26790453    -0.80900
H12         H  0.15243702  0.19645804  0.34177224    -0.06200
C13         C  0.28278548  0.40480478  0.33877948     0.87700
O14         O  0.11025764  0.30733739  0.38704985    -0.75400
O15         O  0.16206800  0.30846836  0.28406207    -0.88200
O16         O  0.29987449  0.28473577  0.34050606    -0.81000
C17         C  0.23899520  0.23828548  0.26260377     0.92900
C18         C  0.04791844  0.22024197  0.25519475     0.92700
Mg19       Mg  0.24470814  0.33228220  0.38088441     1.58000
O20         O  0.29984990  0.40382736  0.40055753    -0.80900
O21         O  0.19180327  0.25595018  0.36431048    -0.75200
O22         O  0.19562094  0.23055667  0.26081416    -0.81000
O23         O  0.04458098  0.33956389  0.28989952    -0.82700
O24         O  0.15414784  0.42621237  0.40730833    -0.81000
C25         C  0.17778318  0.23495970  0.34230735     0.87100
O26         O  0.18874479  0.34872738  0.38469114    -0.88200
O27         O  0.25993399  0.36057746  0.34215697    -0.88300
O28         O  0.27072862  0.43257445  0.34998813    -0.75300
Mg29       Mg  0.13905045  0.23295349  0.28969028     1.58000
O30         O  0.26726009  0.26410046  0.28096003    -0.82700
H31         H  0.03699252  0.23671148  0.34220309    -0.06400
O32         O  0.15965538  0.39855401  0.34705452    -0.88000
H33         H  0.19799361  0.46038320  0.32762661    -0.06200
H34         H  0.15436267  0.29838890  0.41182081    -0.06400
C35         C  0.17288083  0.42186247  0.32661202     0.87100
C36         C  0.06785896  0.25183857  0.32941388     0.87700
C37         C  0.15159734  0.31801423  0.39552108     0.87800
H38         H  0.31368789  0.42024983  0.32601318    -0.06400
O39         O  0.24041281  0.34697994  0.28072874    -0.75400
Mg40       Mg  0.21101432  0.42372175  0.37870844     1.58000
H41         H  0.19674980  0.35747384  0.25636500    -0.06400
C42         C  0.03135209  0.35892507  0.30690205     0.92700
O43         O  0.08262172  0.38827997  0.38736552    -0.82700
C44         C  0.10976953  0.41535439  0.40557174     0.92800
O45         O  0.07998228  0.20764965  0.25658240    -0.82600
Mg46       Mg  0.26408450  0.31335492  0.31244815     1.58200
O47         O  0.05274201  0.37280655  0.32870760    -0.81000
O48         O  0.30550580  0.31876974  0.37887758    -0.82700
C49         C  0.32777654  0.12938167  0.18318947     0.02400
C50         C  0.32355063  0.17125489  0.18430196     0.02300
C51         C  0.35064889  0.20878631  0.16669850    -0.18200
C52         C  0.38312653  0.20680121  0.14893225     0.02400
C53         C  0.38914840  0.16588525  0.14873586     0.02300
C54         C  0.36025242  0.12739380  0.16551807    -0.18200
H55         H  0.36306341  0.09508057  0.16490693     0.04400
H56         H  0.34746528  0.24088950  0.16728741     0.04400
C57         C  0.89055219  0.16434463  0.18185589     0.02400
C58         C  0.84636252  0.12007382  0.18151924     0.02300
C59         C  0.81116493  0.11229359  0.16277344    -0.18200
C60         C  0.81784499  0.14772357  0.14443472     0.02400
C61         C  0.86119449  0.19376345  0.14579841     0.02300
C62         C  0.89702073  0.20093527  0.16435296    -0.18200
H63         H  0.93055847  0.23540207  0.16507837     0.04400
H64         H  0.77754481  0.07784061  0.16261986     0.04400
O65         O  0.25953290  0.87892222  0.33424712    -0.88300
C66         C  0.15875405  0.82680592  0.39092116     0.87800
Mg67       Mg  0.25911003  0.91976171  0.30157995     1.58100
O68         O  0.16341942  0.74855603  0.34453360    -0.88000
O69         O  0.27514307  0.82274053  0.34492541    -0.75300
C70         C  0.03756564  0.79517128  0.25208825     0.92800
O71         O  0.19704627  0.92364078  0.35303564    -0.75100
O72         O  0.07289404  0.83868340  0.25060423    -0.82600
Mg73       Mg  0.25150062  0.90434687  0.37093211     1.58000
C74         C  0.02738647  0.65102164  0.31560107     0.92700
O75         O  0.30719416  0.89132987  0.39152304    -0.80900
H76         H  0.19616653  0.71816197  0.32591881    -0.06200
C77         C  0.06774204  0.79596664  0.32630267     0.87700
O78         O  0.23143602  0.85352080  0.27515006    -0.75400
O79         O  0.19539645  0.83257975  0.37980378    -0.88200
O80         O  0.06415812  0.66386274  0.32972940    -0.81000
C81         C  0.12123945  0.68855349  0.40521640     0.92900
C82         C  0.30996393  0.86041034  0.40577711     0.92700
Mg83       Mg  0.09503850  0.74898739  0.28629316     1.58000
O84         O  0.03936820  0.76425089  0.26684491    -0.80900
O85         O  0.15041779  0.72871766  0.30310465    -0.75200
O86         O  0.16406416  0.72519307  0.40657660    -0.81000
O87         O  0.31443099  0.97834543  0.36175282    -0.82700
O88         O  0.18803699  0.92896488  0.24939824    -0.81000
C89         C  0.17116164  0.73137438  0.32477364     0.87100
O90         O  0.15264287  0.81923474  0.27646950    -0.88200
O91         O  0.09127869  0.77547889  0.32371715    -0.88300
O92         O  0.07701541  0.83255677  0.31266227    -0.75300
Mg93       Mg  0.21696587  0.77871007  0.37516557     1.58000
O94         O  0.09227086  0.68411896  0.38718255    -0.82700
H95         H  0.31490823  0.87542102  0.31888278    -0.06400
O96         O  0.18826647  0.90567660  0.31136752    -0.88000
H97         H  0.15436615  0.93594504  0.32882531    -0.06200
H98         H  0.18593933  0.79536191  0.25318238    -0.06400
C99         C  0.17911109  0.92253436  0.33076283     0.87100
C100        C  0.28464810  0.86009807  0.33208280     0.87700
C101        C  0.18954416  0.82198495  0.26731896     0.87800
H102        H  0.03868721  0.78243461  0.34024431    -0.06400
O103        O  0.11689679  0.79329437  0.38418370    -0.75400
Mg104      Mg  0.13412029  0.87547460  0.28116011     1.58000
H105        H  0.16231673  0.85172094  0.40612672    -0.06400
C106        C  0.32207636  0.00532040  0.34228183     0.92700
O107        O  0.26052151  0.96192818  0.26783154    -0.82700
C108        C  0.23300188  0.96143557  0.25006572     0.92800
O109        O  0.27646945  0.81600512  0.40617697    -0.82600
Mg110      Mg  0.09207184  0.73062749  0.35513068     1.58200
O111        O  0.29274224  0.99153987  0.32337125    -0.81000
O112        O  0.02964869  0.67692304  0.29661104    -0.82700
O113        O  0.65680764  0.75554306  0.34662411    -0.88300
C114        C  0.70092240  0.86458716  0.39901156     0.87800
Mg115      Mg  0.69974180  0.75271996  0.31534872     1.58100
O116        O  0.61497318  0.84797598  0.35184135    -0.88000
O117        O  0.58341727  0.73814527  0.35547409    -0.75300
C118        C  0.78115345  0.96382527  0.25622258     0.92800
O119        O  0.76366132  0.82755654  0.36494538    -0.75100
O120        O  0.79506936  0.93283281  0.25720084    -0.82600
Mg121      Mg  0.69063659  0.77336267  0.38401860     1.58000
C122        C  0.64682566  0.97570575  0.31565876     0.92700
O123        O  0.62332838  0.71895219  0.40554028    -0.80900
H124        H  0.55020634  0.80982972  0.33471801    -0.06200
C125        C  0.75691969  0.94631153  0.33091994     0.87700
O126        O  0.65822366  0.77142117  0.28590636    -0.75400
O127        O  0.67038700  0.82598906  0.38898076    -0.88200
O128        O  0.62682261  0.94478556  0.33340924    -0.81000
C129        C  0.59750954  0.89647988  0.41007349     0.92900
C130        C  0.58519169  0.71061733  0.41744629     0.92700
Mg131      Mg  0.67863229  0.90483336  0.29147445     1.58000
O132        O  0.74567979  0.95844015  0.26974096    -0.80900
O133        O  0.60476732  0.85092759  0.30985376    -0.75200
O134        O  0.58954313  0.85324601  0.41188632    -0.81000
O135        O  0.70543710  0.71346920  0.38005247    -0.82700
O136        O  0.77290193  0.81902476  0.26121804    -0.81000
C137        C  0.58838344  0.83533990  0.33245131     0.87100
O138        O  0.69665802  0.85029614  0.28597700    -0.88200
O139        O  0.71266978  0.92006488  0.32882049    -0.88300
O140        O  0.78549174  0.93669642  0.31881392    -0.75300
Mg141      Mg  0.59310048  0.79814078  0.38355938     1.58000
O142        O  0.62274313  0.92430308  0.39184072    -0.82700
H143        H  0.59894935  0.69689959  0.33199746    -0.06400
O144        O  0.75399523  0.82679870  0.32256629    -0.88000
H145        H  0.81820587  0.86746143  0.33985513    -0.06200
H146        H  0.64152775  0.81080321  0.26178053    -0.06400
C147        C  0.78018901  0.84134518  0.34214500     0.87100
C148        C  0.61275516  0.72868494  0.34421161     0.87700
C149        C  0.66508109  0.81117869  0.27694189     0.87800
H150        H  0.77157765  0.97786443  0.34336271    -0.06400
O151        O  0.70902227  0.90479518  0.39011623    -0.75400
Mg152      Mg  0.77360846  0.87601267  0.29028093     1.58000
H153        H  0.72281909  0.86410793  0.41486388    -0.06400
C154        C  0.72315548  0.70073684  0.36195563     0.92700
O155        O  0.74261368  0.74903805  0.28215622    -0.82700
C156        C  0.76458105  0.77557628  0.26284323     0.92800
O157        O  0.56972524  0.74032953  0.41610100    -0.82600
Mg158      Mg  0.66803747  0.92198742  0.35981029     1.58200
O159        O  0.73875440  0.72533544  0.34130816    -0.81000
O160        O  0.66701767  0.96740778  0.29693334    -0.82700
C161        C  0.87553393  0.69923907  0.18146252     0.02400
C162        C  0.82857230  0.69278857  0.18294810     0.02300
C163        C  0.79259768  0.66126053  0.16540301    -0.18200
C164        C  0.80175576  0.63507657  0.14663129     0.02400
C165        C  0.84797921  0.63965736  0.14590205     0.02300
C166        C  0.88434967  0.67217755  0.16304786    -0.18200
H167        H  0.91970957  0.67546685  0.16249662     0.04400
H168        H  0.75713638  0.65772844  0.16612053     0.04400
O169        O  0.45076960  0.03464635  0.00804819    -0.88300
C170        C  0.50966125  0.98300831  0.06102699     0.87800
Mg171      Mg  0.39756155  0.99138549  0.97820437     1.58100
O172        O  0.58850503  0.06137366  0.01324381    -0.88000
O173        O  0.51753151  0.10314055  0.01585062    -0.75300
C174        C  0.50419628  0.88252010  0.92157665     0.92800
O175        O  0.40360112  0.92769365  0.02991052    -0.75100
O176        O  0.46100786  0.87492391  0.92265777    -0.82600
Mg177      Mg  0.43504101  0.00508443  0.04646720     1.58000
C178        C  0.66862162  0.01077918  0.97286195     0.92700
O179        O  0.45833554  0.07725208  0.06584980    -0.80900
H180        H  0.61886525  0.12420015  0.99424469    -0.06200
C181        C  0.51974115  0.91393737  0.99558935     0.87700
O182        O  0.45624885  0.02125374  0.94693037    -0.75400
O183        O  0.50615833  0.01514437  0.04995596    -0.88200
O184        O  0.66327785  0.02505858  0.99502878    -0.81000
C185        C  0.65392892  0.07391736  0.07187665     0.92900
C186        C  0.49269945  0.11067915  0.07888819     0.92700
Mg187      Mg  0.56208234  0.98822705  0.95402329     1.58000
O188        O  0.53847010  0.91664790  0.93430434    -0.80900
O189        O  0.59330625  0.06536230  0.97068468    -0.75200
O190        O  0.62211970  0.08699128  0.07339931    -0.81000
O191        O  0.36259577  0.99896042  0.04491392    -0.82700
O192        O  0.37590643  0.90720984  0.92659345    -0.81000
C193        C  0.60137827  0.08523978  0.99298501     0.87100
O194        O  0.49070592  0.97794172  0.95056294    -0.88200
O195        O  0.54551350  0.95799581  0.99222161    -0.88300
O196        O  0.47866207  0.88946623  0.98456906    -0.75300
Mg197      Mg  0.56458044  0.08888527  0.04475199     1.58000
O198        O  0.65192878  0.04547456  0.05394014    -0.82700
H199        H  0.46414050  0.09684977  0.99189127    -0.06400
O200        O  0.40769457  0.93126137  0.98729529    -0.88000
H201        H  0.37763486  0.86862317  0.00647748    -0.06200
H202        H  0.51003156  0.02856350  0.92326092    -0.06400
C203        C  0.39515155  0.90759730  0.00763871     0.87100
C204        C  0.47656896  0.07869021  0.00469218     0.87700
C205        C  0.48656064  0.00959320  0.93936821     0.87800
H206        H  0.53224352  0.89581039  0.00836607    -0.06400
O207        O  0.53915786  0.97046087  0.05324469    -0.75400
Mg208      Mg  0.43214087  0.90418277  0.95566424     1.58000
H209        H  0.48604309  0.96415047  0.07710474    -0.06400
C210        C  0.32898318  0.98336228  0.02824842     0.92700
O211        O  0.34268922  0.94502201  0.94676496    -0.82700
C212        C  0.34223949  0.91765788  0.92857450     0.92800
O213        O  0.53570619  0.11777264  0.07790194    -0.82600
Mg214      Mg  0.59807563  0.00075117  0.02223328     1.58200
O215        O  0.33309306  0.96841254  0.00598140    -0.81000
O216        O  0.63527827  0.99451348  0.95593086    -0.82700
O217        O  0.55633348  0.57708572  0.98818747    -0.88300
C218        C  0.48347444  0.46653933  0.93715908     0.87800
Mg219      Mg  0.60455517  0.57794648  0.01826359     1.58100
O220        O  0.42030744  0.48951300  0.98522781    -0.88000
O221        O  0.50205965  0.59693823  0.97966442    -0.75300
C222        C  0.46987331  0.37096662  0.07889667     0.92800
O223        O  0.58680251  0.50328277  0.96858229    -0.75100
O224        O  0.51547446  0.39947922  0.07682862    -0.82600
Mg225      Mg  0.56962946  0.55915523  0.95017179     1.58000
C226        C  0.32345175  0.36760477  0.02434808     0.92700
O227        O  0.55716835  0.61459659  0.92879919    -0.80900
H228        H  0.39973079  0.53208299  0.00255570    -0.06200
C229        C  0.45714217  0.38767003  0.00534667     0.87700
O230        O  0.54903862  0.56472095  0.04972017    -0.75400
O231        O  0.49485732  0.50659602  0.94637709    -0.88200
O232        O  0.33451025  0.39896314  0.00688129    -0.81000
C233        C  0.34840406  0.43823174  0.92781189     0.92900
C234        C  0.52602953  0.62114630  0.91690328     0.92700
Mg235      Mg  0.42900567  0.43476194  0.04596749     1.58000
O236        O  0.44042298  0.37986186  0.06716422    -0.80900
O237        O  0.41217755  0.49064349  0.02756507    -0.75200
O238        O  0.38607295  0.48010201  0.92506828    -0.81000
O239        O  0.64661173  0.61966804  0.95397568    -0.82700
O240        O  0.61133790  0.51051392  0.07159148    -0.81000
C241        C  0.41010054  0.50501878  0.00481000     0.87100
O242        O  0.50359052  0.48607819  0.04958299    -0.88200
O243        O  0.44214601  0.41604927  0.00811100    -0.88300
O244        O  0.49598055  0.39544739  0.01620692    -0.75300
Mg245      Mg  0.44764920  0.53628945  0.95253639     1.58000
O246        O  0.34373365  0.41183208  0.94715186    -0.82700
H247        H  0.56063251  0.63707888  0.00273215    -0.06400
O248        O  0.57840867  0.50314011  0.01100691    -0.88000
H249        H  0.59919948  0.46118513  0.99314896    -0.06200
H250        H  0.49427796  0.52770843  0.07513559    -0.06400
C251        C  0.58873185  0.48823177  0.99120826     0.87100
C252        C  0.54088188  0.60512718  0.99076038     0.87700
C253        C  0.51498658  0.52586585  0.05911453     0.87800
H254        H  0.43708824  0.35590293  0.99327726    -0.06400
O255        O  0.44937079  0.42780884  0.94671756    -0.75400
Mg256      Mg  0.55012059  0.45537024  0.04360918     1.58000
H257        H  0.50410301  0.46435700  0.92119646    -0.06400
C258        C  0.67591493  0.62701385  0.97228791     0.92700
O259        O  0.65413125  0.57931384  0.04988055    -0.82700
C260        C  0.64923076  0.55225657  0.06902290     0.92800
O261        O  0.48084679  0.59093705  0.91906586    -0.82600
Mg262      Mg  0.39388953  0.41473945  0.97831978     1.58200
O263        O  0.66475525  0.59552841  0.98977664    -0.81000
O264        O  0.35245574  0.37473726  0.04272189    -0.82700
O265        O  0.03223751  0.44704913  0.99131813    -0.88300
C266        C  0.98096909  0.50470956  0.94024624     0.87800
Mg267      Mg  0.99042128  0.40213728  0.02356823     1.58100
O268        O  0.07522859  0.58075497  0.98281403    -0.88000
O269        O  0.10429751  0.50208329  0.97881672    -0.75300
C270        C  0.91852693  0.53832126  0.08273888     0.92800
O271        O  0.92363424  0.40805478  0.97590581    -0.75100
O272        O  0.90340114  0.49288391  0.08325239    -0.82600
Mg273      Mg  0.99482506  0.42483299  0.95511650     1.58000
C274        C  0.05119900  0.68115741  0.01901319     0.92700
O275        O  0.06032245  0.43703374  0.93227279    -0.80900
H276        H  0.14147040  0.60653244  0.99784537    -0.06200
C277        C  0.93796504  0.54047468  0.00963786     0.87700
O278        O  0.03624295  0.46320189  0.05233009    -0.75400
O279        O  0.01355380  0.49783442  0.94794532    -0.88200
O280        O  0.06904109  0.66735507  0.00152303    -0.81000
C281        C  0.08078424  0.64153538  0.92316931     0.92900
C282        C  0.09586920  0.46591318  0.91825037     0.92700
Mg283      Mg  0.02013212  0.57942666  0.04603938     1.58000
O284        O  0.95514554  0.56689486  0.06928396    -0.80900
O285        O  0.09067827  0.59616265  0.02460083    -0.75200
O286        O  0.09015017  0.60714371  0.92059129    -0.81000
O287        O  0.98191979  0.34917498  0.96185360    -0.82700
O288        O  0.91998439  0.39492938  0.07948961    -0.81000
C289        C  0.10396293  0.59508979  0.00139071     0.87100
O290        O  0.00028217  0.50571514  0.05318467    -0.88200
O291        O  0.98204107  0.55710429  0.01017882    -0.88300
O292        O  0.90968555  0.50316039  0.02255041    -0.75300
Mg293      Mg  0.09137543  0.54977331  0.95013040     1.58000
O294        O  0.05971972  0.64477012  0.94318484    -0.82700
H295        H  0.09197508  0.44880697  0.00430988    -0.06400
O296        O  0.93833992  0.42380044  0.01767411    -0.88000
H297        H  0.87241195  0.39827320  0.00225736    -0.06200
H298        H  0.05689417  0.52116969  0.07602975    -0.06400
C299        C  0.90994066  0.40951173  0.99896440     0.87100
C300        C  0.07654212  0.46495319  0.99209155     0.87700
C301        C  0.03167713  0.49752356  0.06141848     0.87800
H302        H  0.92320182  0.55780008  0.99783882    -0.06400
O303        O  0.97530862  0.53813731  0.94965173    -0.75400
Mg304      Mg  0.92190212  0.45443985  0.05052542     1.58000
H305        H  0.95540369  0.48033236  0.92597846    -0.06400
C306        C  0.96135484  0.32235240  0.98119228     0.92700
O307        O  0.94814896  0.35550347  0.05662956    -0.82700
C308        C  0.92580724  0.35838196  0.07618063     0.92800
O309        O  0.10978759  0.51107179  0.91749292    -0.82600
Mg310      Mg  0.02165137  0.60054808  0.97740128     1.58200
O311        O  0.94356886  0.33636661  0.99860736    -0.81000
O312        O  0.03262309  0.65523172  0.03893987    -0.82700
O313        O  0.29775414  0.08260379  0.67066366    -0.88300
C314        C  0.34130335  0.19021040  0.72322888     0.87800
Mg315      Mg  0.34274403  0.08181854  0.63970711     1.58100
O316        O  0.25290302  0.17194036  0.67689406    -0.88000
O317        O  0.22407368  0.06343890  0.68023727    -0.75300
C318        C  0.41995609  0.29246870  0.58222861     0.92800
O319        O  0.40422983  0.15409729  0.68959936    -0.75100
O320        O  0.43664242  0.26371151  0.58305537    -0.82600
Mg321      Mg  0.33110989  0.09810356  0.70810084     1.58000
C322        C  0.27819972  0.29535952  0.63866740     0.92700
O323        O  0.26405030  0.04255598  0.72965544    -0.80900
H324        H  0.18866271  0.13076404  0.65972435    -0.06200
C325        C  0.39343574  0.27307797  0.65573014     0.87700
O326        O  0.30032900  0.09754530  0.60958716    -0.75400
O327        O  0.31088765  0.15097409  0.71374018    -0.85200
O328        O  0.26245169  0.26823490  0.65833115    -0.81000
C329        C  0.23683096  0.22036867  0.73612472     0.92900
C330        C  0.22816960  0.03686674  0.74297153     0.92700
Mg331      Mg  0.31549745  0.22766126  0.61600307     1.58000
O332        O  0.38182852  0.28278402  0.59452811    -0.80900
O333        O  0.24273885  0.17197564  0.63465669    -0.75200
O334        O  0.23130790  0.17805197  0.73797573    -0.81000
O335        O  0.34539275  0.03718400  0.70256500    -0.82700
O336        O  0.41714241  0.15026430  0.58655979    -0.81000
C337        C  0.22651498  0.15741122  0.65740640     0.87100
O338        O  0.33720826  0.17629342  0.61070144    -0.88200
O339        O  0.34945061  0.24534733  0.65344285    -0.88300
O340        O  0.42338387  0.26497057  0.64401259    -0.75300
Mg341      Mg  0.23372140  0.12304525  0.70883631     1.58000
O342        O  0.25923872  0.24793118  0.71719197    -0.82700
H343        H  0.24026306  0.02401182  0.65567591    -0.06400
O344        O  0.39474228  0.15617640  0.64738262    -0.88000
H345        H  0.45862090  0.19688720  0.66502435    -0.06200
H346        H  0.28475306  0.13717105  0.58501121    -0.06400
C347        C  0.42076744  0.17000059  0.66703335     0.87100
C348        C  0.25374456  0.05526383  0.66827693     0.87700
C349        C  0.30719848  0.13736853  0.60075305     0.87800
H350        H  0.40667671  0.30457156  0.66812739    -0.06400
O351        O  0.34730099  0.22977686  0.71444561    -0.75400
Mg352      Mg  0.41477468  0.20564269  0.61552650     1.58000
H353        H  0.36459258  0.19091161  0.73863815    -0.06400
C354        C  0.36632518  0.02982615  0.68388321     0.92700
O355        O  0.38704540  0.07980917  0.60711345    -0.82700
C356        C  0.40939178  0.10702742  0.58809342     0.92800
O357        O  0.21333449  0.06702038  0.74156406    -0.82600
Mg358      Mg  0.30468232  0.24617359  0.68456219     1.58200
O359        O  0.38568598  0.06101634  0.66615750    -0.81000
O360        O  0.29895366  0.28651912  0.62047164    -0.82700
C361        C  0.19701861  0.35887670  0.84973995     0.02400
C362        C  0.15544227  0.36326045  0.84883930     0.02300
C363        C  0.11970545  0.33698078  0.83000966    -0.18200
C364        C  0.12475362  0.30687742  0.81186354     0.02400
C365        C  0.16725599  0.30374395  0.81236880     0.02300
C366        C  0.20253950  0.32948020  0.83148042    -0.18200
H367        H  0.23502697  0.32696994  0.83202318     0.04400
H368        H  0.08729462  0.33963262  0.82963522     0.04400
C369        C  0.13648106  0.80467814  0.85362627     0.02400
C370        C  0.18281506  0.84723521  0.85399718     0.02300
C371        C  0.19248565  0.88387661  0.83599044    -0.18200
C372        C  0.15785918  0.87982486  0.81762935     0.02400
C373        C  0.11085770  0.83839672  0.81791037     0.02300
C374        C  0.10104541  0.80145418  0.83591250    -0.18200
H375        H  0.06562625  0.76902162  0.83564478     0.04400
H376        H  0.22776905  0.91651299  0.83636808     0.04400
O377        O  0.89808174  0.22804701  0.67406527    -0.88300
C378        C  0.79940085  0.17845236  0.73054349     0.87800
Mg379      Mg  0.89738004  0.27118747  0.64184723     1.58100
O380        O  0.80529292  0.09624419  0.68700348    -0.88000
O381        O  0.91544608  0.17338157  0.68581369    -0.75300
C382        C  0.68307908  0.13564170  0.58926019     0.92800
O383        O  0.83445520  0.27096014  0.69257464    -0.75100
O384        O  0.71566081  0.18034896  0.58850244    -0.82600
Mg385      Mg  0.89190378  0.25507271  0.71078359     1.58000
C386        C  0.67533289  0.99434698  0.65402357     0.92700
O387        O  0.94766844  0.24292086  0.73140920    -0.80900
H388        H  0.84184320  0.06839120  0.67000660    -0.06200
C389        C  0.70667274  0.13842269  0.66385273     0.87700
O390        O  0.87684110  0.20848739  0.61359048    -0.75400
O391        O  0.83705815  0.18323048  0.72127710    -0.88200
O392        O  0.70193297  0.00892009  0.67407385    -0.81000
C393        C  0.76019968  0.03857969  0.74817675     0.92900
C394        C  0.95490456  0.21429121  0.74520886     0.92700
Mg395      Mg  0.74382958  0.09618176  0.62606099     1.58000
O396        O  0.68685576  0.10604154  0.60417946    -0.80900
O397        O  0.79928831  0.07963454  0.64516472    -0.75200
O398        O  0.80513630  0.07189682  0.74897954    -0.81000
O399        O  0.95632214  0.32919898  0.69972532    -0.82700
O400        O  0.82732231  0.27420636  0.58866057    -0.81000
C401        C  0.81620332  0.08061800  0.66771997     0.87100
O402        O  0.79822296  0.16812927  0.61701391    -0.88200
O403        O  0.73290422  0.12066741  0.66264033    -0.88300
O404        O  0.71509086  0.17455412  0.65008979    -0.75300
Mg405      Mg  0.85917776  0.12881299  0.71722276     1.58000
O406        O  0.73256989  0.03778945  0.73028582    -0.82700
H407        H  0.95296272  0.22405539  0.65836956    -0.06400
O408        O  0.82505498  0.25155889  0.65101737    -0.88000
H409        H  0.78824609  0.27864046  0.66862123    -0.06200
H410        H  0.83313713  0.14923220  0.59175890    -0.06400
C411        C  0.81477029  0.26745110  0.67045112     0.87100
C412        C  0.92345769  0.20943311  0.67205190     0.87700
C413        C  0.83557178  0.17438193  0.60653647     0.87800
H414        H  0.67612727  0.12302632  0.67686393    -0.06400
O415        O  0.75814941  0.14562036  0.72265893    -0.75400
Mg416      Mg  0.77358598  0.21975133  0.61995482     1.58000
H417        H  0.80167319  0.20430331  0.74482282    -0.06400
C418        C  0.95724527  0.35246984  0.67971164     0.92700
O419        O  0.89814240  0.31565786  0.60891638    -0.82700
C420        C  0.87014186  0.31090793  0.59033680     0.92800
O421        O  0.92260363  0.16933410  0.74695869    -0.82600
Mg422      Mg  0.73344096  0.08010106  0.69597868     1.58200
O423        O  0.91939558  0.33729905  0.66634816    -0.81000
O424        O  0.68353435  0.02142918  0.63459078    -0.82700
O425        O  0.73842866  0.63510683  0.65974668    -0.88300
C426        C  0.84717372  0.68259048  0.60566663     0.87800
Mg427      Mg  0.73226321  0.67957104  0.69009531     1.58100
O428        O  0.84298049  0.60186801  0.65307768    -0.88000
O429        O  0.73062510  0.56463159  0.65092743    -0.75300
C430        C  0.95208236  0.78128182  0.74523957     0.92800
O431        O  0.80307176  0.74231334  0.63789581    -0.75100
O432        O  0.91834405  0.79163541  0.74413495    -0.82600
Mg433      Mg  0.75291255  0.66584572  0.62135332     1.58000
C434        C  0.97333091  0.64615914  0.69306108     0.92700
O435        O  0.70002771  0.59538383  0.60140082    -0.80900
H436        H  0.80636653  0.54013736  0.67282019    -0.06200
C437        C  0.93043237  0.74929135  0.67050810     0.87700
O438        O  0.76047761  0.64895701  0.72115628    -0.75400
O439        O  0.81081844  0.65177817  0.61702829    -0.88200
O440        O  0.95242359  0.63192668  0.67110915    -0.81000
C441        C  0.89251243  0.58796220  0.59344886     0.92900
C442        C  0.69743274  0.56089974  0.58794860     0.92700
Mg443      Mg  0.89599320  0.67567400  0.71248808     1.58000
O444        O  0.94958232  0.74650207  0.73209648    -0.80900
O445        O  0.84458053  0.59925259  0.69577252    -0.75200
O446        O  0.84806426  0.57717142  0.59230143    -0.81000
O447        O  0.68947533  0.67594156  0.62371436    -0.82700
O448        O  0.80117013  0.76522651  0.74079571    -0.81000
C449        C  0.83071206  0.57882634  0.67364513     0.87100
O450        O  0.83850521  0.69029358  0.71676242    -0.88200
O451        O  0.90973080  0.70515799  0.67412648    -0.88300
O452        O  0.91682674  0.77573391  0.68179811    -0.75300
Mg453      Mg  0.79052923  0.57677857  0.62159580     1.58000
O454        O  0.92027468  0.61420795  0.61178927    -0.82700
H455        H  0.68646625  0.57384264  0.67555985    -0.06400
O456        O  0.80408939  0.73883745  0.68047009    -0.88000
H457        H  0.83938492  0.80120054  0.66120000    -0.06200
H458        H  0.80685352  0.64123108  0.74477098    -0.06400
C459        C  0.81595335  0.76238655  0.66010743     0.87100
C460        C  0.71714438  0.59077886  0.66267113     0.87700
C461        C  0.80251713  0.65992330  0.72849633     0.87800
H462        H  0.96061369  0.76577493  0.65727883    -0.06400
O463        O  0.88906379  0.69317208  0.61314616    -0.75400
Mg464      Mg  0.85795660  0.76469189  0.71147626     1.58000
H465        H  0.84328158  0.70200500  0.58961477    -0.06400
C466        C  0.66997658  0.68886328  0.64072141     0.92700
O467        O  0.72856206  0.72787463  0.72138308    -0.82700
C468        C  0.75722548  0.75586800  0.73898733     0.92800
O469        O  0.73131151  0.55077511  0.58857827    -0.82600
Mg470      Mg  0.91507657  0.66017515  0.64397292     1.58200
O471        O  0.68796408  0.70127276  0.66347375    -0.81000
O472        O  0.95904113  0.66461576  0.70999346    -0.82700
C473        C  0.60118538  0.82647540  0.84798210     0.02400
C474        C  0.60879583  0.78674725  0.84755918     0.02300
C475        C  0.64111037  0.78608679  0.82937727    -0.18200
C476        C  0.66780402  0.82457091  0.81214306     0.02400
C477        C  0.66164722  0.86553084  0.81307090     0.02300
C478        C  0.62813708  0.86537708  0.83098194    -0.18200
H479        H  0.62381290  0.89675506  0.83218736     0.04400
H480        H  0.64528834  0.75457824  0.82852971     0.04400
C481        C  0.03176392  0.53611248  0.48102950     0.02400
C482        C  0.02363733  0.48839293  0.47974075     0.02300
C483        C  0.99019430  0.45348330  0.49684618    -0.18200
C484        C  0.96493454  0.46456855  0.51539612     0.02400
C485        C  0.97376144  0.51267205  0.51709170     0.02300
C486        C  0.00681847  0.54735557  0.49967484    -0.18200
H487        H  0.01235646  0.58363980  0.50026455     0.04400
H488        H  0.98481558  0.41726999  0.49615394     0.04400
C489        C  0.51069706  0.54117650  0.48349601     0.02400
C490        C  0.46330427  0.50031562  0.48394800     0.02300
C491        C  0.45387823  0.46206730  0.50086844    -0.18200
C492        C  0.48975502  0.46346598  0.51744108     0.02400
C493        C  0.53692244  0.50447552  0.51713330     0.02300
C494        C  0.54666694  0.54254094  0.50002381    -0.18200
H495        H  0.58266113  0.57417967  0.49985610     0.04400
H496        H  0.41811236  0.43010010  0.50082966     0.04400
C497        C  0.51318280  0.97619885  0.47924937     0.02400
C498        C  0.46453222  0.96504780  0.47842420     0.02300
C499        C  0.44916568  0.98792334  0.49608749    -0.18200
C500        C  0.48086290  0.02112347  0.51465402     0.02400
C501        C  0.52929439  0.03172306  0.51560850     0.02300
C502        C  0.54477851  0.00923916  0.49785901    -0.18200
H503        H  0.58181301  0.01690882  0.49885017     0.04400
H504        H  0.41221113  0.98044669  0.49505120     0.04400
O505        O  0.01667979  0.94185457  0.02144170    -0.88300
C506        C  0.10255267  0.05143497  0.97364306     0.87800
Mg507      Mg  0.94951396  0.88112573  0.01066326     1.58100
O508        O  0.04699366  0.07922108  0.02461167    -0.88000
O509        O  0.05405463  0.99468212  0.05246677    -0.75300
C510        C  0.83464221  0.98600462  0.96516008     0.92800
O511        O  0.02612818  0.93874000  0.95938018    -0.75100
O512        O  0.82978528  0.94401818  0.96370431    -0.82600
Mg513      Mg  0.07484736  0.95860133  0.99572992     1.58000
C514        C  0.97589677  0.15366125  0.00221653     0.92700
O515        O  0.12192197  0.97276936  0.03117428    -0.80900
H516        H  0.03425475  0.08231332  0.06232447    -0.06200
C517        C  0.97487047  0.04358147  0.95385513     0.87700
O518        O  0.90874364  0.91267270  0.03169681    -0.75400
O519        O  0.08898802  0.03049727  0.99456960    -0.88200
O520        O  0.01755413  0.15794350  0.00269859    -0.81000
C521        C  0.15962056  0.17807620  0.00777069     0.92900
C522        C  0.16370645  0.00874129  0.03486962     0.92700
Mg523      Mg  0.92519858  0.03759591  0.00340246     1.58000
O524        O  0.87598173  0.02279233  0.96889743    -0.80900
O525        O  0.97475105  0.05794132  0.03935848    -0.75200
O526        O  0.16044024  0.14077959  0.01555970    -0.81000
O527        O  0.06332978  0.88425673  0.99700296    -0.82700
O528        O  0.83963282  0.85333585  0.98291559    -0.81000
C529        C  0.01970767  0.07405908  0.04282932     0.87100
O530        O  0.91105728  0.96515653  0.00440111    -0.88200
O531        O  0.98266418  0.05378727  0.97716142    -0.88300
O532        O  0.94460389  0.00090989  0.94630029    -0.75300
Mg533      Mg  0.10600095  0.06597622  0.03143452     1.58000
O534        O  0.12159591  0.17565348  0.99880247    -0.82700
H535        H  0.00353335  0.92432285  0.05895285    -0.06400
O536        O  0.95328961  0.91632634  0.97377962    -0.88000
H537        H  0.96707110  0.91467301  0.93607354    -0.06200
H538        H  0.87617171  0.95198647  0.03817003    -0.06400
C539        C  0.98114906  0.92240588  0.95567048     0.87100
C540        C  0.02371339  0.95210664  0.04478200     0.87700
C541        C  0.89731084  0.94358721  0.02514333     0.87800
H542        H  0.99433607  0.07145040  0.93961021    -0.06400
O543        O  0.09060439  0.08171210  0.96661409    -0.75400
Mg544      Mg  0.89373645  0.92937210  0.96745688     1.58000
H545        H  0.12366011  0.04270425  0.96077999    -0.06400
C546        C  0.02583491  0.84288921  0.99622297     0.92700
O547        O  0.87908226  0.81863766  0.99932007    -0.82700
C548        C  0.84098521  0.81607175  0.99041008     0.92800
O549        O  0.16964955  0.05115543  0.03598724    -0.82600
Mg550      Mg  0.05061771  0.11386572  0.98766903     1.58200
O551        O  0.98369459  0.83750286  0.99575281    -0.81000
O552        O  0.93751644  0.11276458  0.00176904    -0.82700
O553        O  0.65997921  0.38907816  0.37339466    -0.88300
C554        C  0.59073056  0.31188679  0.30829600     0.87800
Mg555      Mg  0.73469798  0.44338122  0.36859360     1.58100
O556        O  0.62506014  0.25292933  0.35305693    -0.88000
O557        O  0.61537117  0.32095567  0.39369768    -0.75300
C558        C  0.84888664  0.35048185  0.31018975     0.92800
O559        O  0.67349512  0.42569808  0.31333999    -0.75100
O560        O  0.84628866  0.38830881  0.31285244    -0.82600
Mg561      Mg  0.61331039  0.39269403  0.34401409     1.58000
C562        C  0.67955285  0.16776901  0.32768427     0.92700
O563        O  0.54406374  0.36249507  0.36969700    -0.80900
H564        H  0.61840293  0.22334700  0.38801684    -0.06200
C565        C  0.71057696  0.30434344  0.28988913     0.87700
O566        O  0.75938879  0.39212232  0.38484707    -0.75400
O567        O  0.59638554  0.32187263  0.33173572    -0.88200
O568        O  0.64228403  0.17208518  0.32750626    -0.81000
C569        C  0.50950933  0.17300871  0.32663294     0.92900
C570        C  0.50745450  0.31986019  0.37172331     0.92700
Mg571      Mg  0.74387844  0.27948025  0.34024925     1.58000
O572        O  0.81245938  0.30841581  0.31416485    -0.80900
O573        O  0.68349514  0.24713587  0.37080087    -0.75200
O574        O  0.51520058  0.21399490  0.33217245    -0.81000
O575        O  0.63567403  0.46926862  0.35699947    -0.82700
O576        O  0.83873950  0.45509139  0.35137636    -0.81000
C577        C  0.64092896  0.24019721  0.37128294     0.87100
O578        O  0.76057020  0.34977917  0.35164074    -0.88200
O579        O  0.69734035  0.28211807  0.31058227    -0.88300
O580        O  0.74139501  0.34927014  0.28938306    -0.75300
Mg581      Mg  0.56909467  0.26810120  0.36129202     1.58000
O582        O  0.54518264  0.16838237  0.32046409    -0.82700
H583        H  0.66271809  0.38372493  0.41194018    -0.06400
O584        O  0.73068219  0.41688198  0.33024032    -0.88000
H585        H  0.73799462  0.44810774  0.29569806    -0.06200
H586        H  0.77963941  0.34156458  0.38741866    -0.06400
C587        C  0.71540906  0.43102736  0.31238161     0.87100
C588        C  0.64659452  0.36581371  0.39376487     0.87700
C589        C  0.76726163  0.36027668  0.37500258     0.87800
H590        H  0.69444155  0.28546426  0.27192569    -0.06400
O591        O  0.59896792  0.28018261  0.29854745    -0.75400
Mg592      Mg  0.78727957  0.40238564  0.32163047     1.58000
H593        H  0.57896387  0.33092806  0.29572398    -0.06400
C594        C  0.67919265  0.50441053  0.35678086     0.92700
O595        O  0.81178727  0.50379018  0.36063547    -0.82700
C596        C  0.84586432  0.49741097  0.35341645     0.92800
O597        O  0.51092762  0.28259675  0.36912290    -0.82600
Mg598      Mg  0.62282507  0.22791421  0.31464010     1.58200
O599        O  0.71515270  0.49817294  0.35581834    -0.81000
O600        O  0.72239215  0.20383181  0.32841881    -0.82700
O601        O  0.26219558  0.69625164  0.64724852    -0.88300
C602        C  0.37073449  0.73300128  0.69961217     0.87800
Mg603      Mg  0.20466818  0.62430739  0.64361471     1.58100
O604        O  0.39359718  0.71848778  0.63465588    -0.88000
O605        O  0.31701682  0.74968275  0.62186519    -0.75300
C606        C  0.29634869  0.48220185  0.64385191     0.92800
O607        O  0.25359627  0.65161671  0.70476749    -0.75100
O608        O  0.25939810  0.48405601  0.65073025    -0.82600
Mg609      Mg  0.27790997  0.72541521  0.68653193     1.58000
C610        C  0.47565590  0.65322322  0.62536255     0.92700
O611        O  0.30201175  0.80352524  0.67435887    -0.80900
H612        H  0.40369803  0.73962803  0.59757716    -0.06200
C613        C  0.36182021  0.60605500  0.68126920     0.87700
O614        O  0.24087311  0.60782637  0.60968698    -0.75400
O615        O  0.34969912  0.73806523  0.68075234    -0.88200
O616        O  0.46915603  0.68874757  0.62740596    -0.81000
C617        C  0.49682579  0.81550288  0.66459304     0.92900
C618        C  0.34080392  0.84095864  0.66686041     0.92700
Mg619      Mg  0.36042211  0.59598568  0.62288537     1.58000
O620        O  0.33614117  0.51963932  0.63759039    -0.80900
O621        O  0.38353535  0.66902830  0.60282376    -0.75200
O622        O  0.45853668  0.81768952  0.66651017    -0.81000
O623        O  0.20001871  0.70942350  0.69294469    -0.82700
O624        O  0.17463845  0.50340670  0.64098461    -0.81000
C625        C  0.39403924  0.71060195  0.61120641     0.87100
O626        O  0.28752842  0.58292747  0.62624240    -0.88200
O627        O  0.37391928  0.62845270  0.66066861    -0.88300
O628        O  0.31790958  0.57553218  0.68584414    -0.75300
Mg629      Mg  0.38569622  0.77775750  0.64606453     1.58000
O630        O  0.49571504  0.77591216  0.66138976    -0.82700
H631        H  0.24540766  0.71379097  0.61320167    -0.06400
O632        O  0.23975519  0.60364471  0.67175299    -0.88000
H633        H  0.22736823  0.57952974  0.70824359    -0.06200
H634        H  0.27913439  0.58594400  0.58798769    -0.06400
C635        C  0.23913251  0.60994546  0.69533074     0.87100
C636        C  0.27329553  0.71998391  0.62710647     0.87700
C637        C  0.26942845  0.59143167  0.60723846     0.87800
H638        H  0.38892713  0.61358736  0.69594302    -0.06400
O639        O  0.40082281  0.71846706  0.69698509    -0.75400
Mg640      Mg  0.24902425  0.54495658  0.66104410     1.58000
H641        H  0.36255817  0.74014428  0.71888022    -0.06400
C642        C  0.16143073  0.66973312  0.68756234     0.92700
O643        O  0.14139846  0.54939444  0.64241455    -0.82700
C644        C  0.13753595  0.50814508  0.64185217     0.92800
O645        O  0.37630862  0.83878902  0.65774286    -0.82600
Mg646      Mg  0.43281471  0.70088590  0.66147510     1.58200
O647        O  0.16229485  0.63800778  0.67323193    -0.81000
O648        O  0.43951480  0.61072787  0.62231040    -0.82700
C649        C  0.01869700  0.64631743  0.69781257    -0.05400
C650        C  0.05827523  0.68794774  0.70870232    -0.32800
C651        C  0.10518846  0.69524736  0.70731323     0.36400
C652        C  0.11274463  0.66002529  0.69539547    -0.05700
C653        C  0.07201939  0.61604819  0.68727862    -0.32700
C654        C  0.02562678  0.60960680  0.68783801     0.36300
H655        H  0.05347385  0.71675089  0.71639322     0.16700
O656        O  0.14339290  0.73843059  0.71568522    -0.60200
H657        H  0.07619578  0.58750577  0.67866470     0.16700
O658        O  0.98748690  0.56792208  0.67786346    -0.60300
H659        H  0.98984180  0.57213491  0.65876574     0.43700
H660        H  0.14793230  0.73328009  0.73418667     0.43700
C661        C  0.62238626  0.68430024  0.63462663    -0.05400
C662        C  0.60200125  0.70219783  0.65226767    -0.32800
C663        C  0.55439302  0.69213454  0.64914479     0.36400
C664        C  0.52559884  0.66281261  0.62838014    -0.05700
C665        C  0.54558790  0.64492720  0.61058171    -0.32700
C666        C  0.59373093  0.65597441  0.61330218     0.36300
H667        H  0.62255335  0.72317131  0.66898837     0.16700
O668        O  0.53512030  0.70862229  0.66746186    -0.60200
H669        H  0.52401833  0.62268799  0.59443188     0.16700
O670        O  0.61139734  0.63670284  0.59568509    -0.60300
H671        H  0.62347932  0.65986400  0.58106314     0.43700
H672        H  0.55490448  0.74439253  0.66671493     0.43700
C673        C  0.73862375  0.77918121  0.75720905    -0.05400
C674        C  0.75532440  0.79003318  0.78295191    -0.32800
C675        C  0.73486805  0.80823593  0.80062319     0.36400
C676        C  0.69806005  0.81738366  0.79259900    -0.05700
C677        C  0.68361028  0.80953999  0.76649671    -0.32700
C678        C  0.70346653  0.79072632  0.74892227     0.36300
H679        H  0.78279761  0.78242620  0.78973087     0.16700
O680        O  0.75031900  0.81610073  0.82595252    -0.60200
H681        H  0.65498935  0.81567464  0.75998547     0.16700
O682        O  0.68746223  0.78293178  0.72369688    -0.60300
H683        H  0.70979250  0.81326234  0.71448263     0.43700
H684        H  0.73578141  0.78352455  0.83382742     0.43700
C685        C  0.65403601  0.53542400  0.57064351    -0.05400
C686        C  0.61007551  0.53024642  0.57945812    -0.32800
C687        C  0.57138850  0.51838340  0.56244599     0.36400
C688        C  0.57547389  0.51075565  0.53590949    -0.05700
C689        C  0.61848827  0.51375324  0.52712795    -0.32700
C690        C  0.65741112  0.52558113  0.54428428     0.36300
H691        H  0.60660044  0.53812913  0.59953181     0.16700
O692        O  0.53067511  0.51702379  0.57174659    -0.60200
H693        H  0.62248433  0.50849872  0.50671932     0.16700
O694        O  0.69990377  0.53166834  0.53459751    -0.60300
H695        H  0.69675445  0.49932348  0.53574554     0.43700
H696        H  0.53685061  0.55046906  0.56987739     0.43700
C697        C  0.91283735  0.56874017  0.57345891    -0.05400
C698        C  0.88209909  0.52931706  0.55729078    -0.32800
C699        C  0.90089465  0.50953061  0.53940522     0.36400
C700        C  0.95133251  0.52936693  0.53714062    -0.05700
C701        C  0.98187196  0.56859563  0.55321333    -0.32700
C702        C  0.96338715  0.58817024  0.57106903     0.36300
H703        H  0.84326257  0.51342097  0.55861400     0.16700
O704        O  0.86980269  0.47226768  0.52345566    -0.60200
H705        H  0.02073045  0.58453584  0.55179059     0.16700
O706        O  0.99552158  0.62664672  0.58602413    -0.60300
H707        H  0.00428064  0.65569387  0.57542732     0.43700
H708        H  0.85313014  0.44358064  0.53484974     0.43700
C709        C  0.63135833  0.94645554  0.65460221    -0.05400
C710        C  0.62954207  0.90980977  0.67032663    -0.32800
C711        C  0.58572186  0.86679395  0.67432157     0.36400
C712        C  0.54312282  0.86075637  0.66291310    -0.05700
C713        C  0.54505662  0.89721527  0.64717547    -0.32700
C714        C  0.58867842  0.93951018  0.64269128     0.36300
H715        H  0.66194572  0.91490321  0.67989855     0.16700
O716        O  0.58467237  0.83144206  0.68971047    -0.60200
H717        H  0.51255750  0.89260175  0.63791918     0.16700
O718        O  0.58850059  0.97511564  0.62805749    -0.60300
H719        H  0.58993524  0.96616318  0.60978159     0.43700
H720        H  0.58674316  0.84308989  0.70778385     0.43700
C721        C  0.08942680  0.46507598  0.64662021    -0.05400
C722        C  0.08771039  0.42503979  0.65871219    -0.32800
C723        C  0.04540487  0.38945046  0.67048485     0.36400
C724        C  0.00313952  0.39244737  0.66963941    -0.05700
C725        C  0.00371141  0.43069147  0.65610842    -0.32700
C726        C  0.04642374  0.46700899  0.64476990     0.36300
H727        H  0.12006145  0.42253796  0.66048276     0.16700
O728        O  0.04536953  0.35100642  0.68212935    -0.60200
H729        H  0.97112002  0.43283873  0.65471548     0.16700
O730        O  0.04605765  0.50495780  0.63275629    -0.60300
H731        H  0.03694972  0.49442006  0.61448011     0.43700
H732        H  0.06558669  0.36458246  0.69792823     0.43700
C733        C  0.73743848  0.99718818  0.76708660    -0.05400
C734        C  0.68648072  0.96855160  0.76737754    -0.32800
C735        C  0.66232866  0.92533161  0.78129708     0.36400
C736        C  0.68840045  0.90908382  0.79598614    -0.05700
C737        C  0.73933640  0.93762551  0.79625087    -0.32700
C738        C  0.76381382  0.98140427  0.78210041     0.36300
H739        H  0.66467385  0.97914103  0.75622441     0.16700
O740        O  0.61273022  0.89906968  0.78037506    -0.60200
H741        H  0.76016049  0.92635978  0.80779225     0.16700
O742        O  0.81335568  0.00745438  0.78251172    -0.60300
H743        H  0.82190487  0.03072970  0.79706898     0.43700
H744        H  0.60468642  0.87303620  0.76747137     0.43700
C745        C  0.64036426  0.11533253  0.57167473    -0.05400
C746        C  0.59769037  0.07313910  0.57917462    -0.32800
C747        C  0.55978325  0.04734467  0.56151771     0.36400
C748        C  0.56416238  0.06337514  0.53579489    -0.05700
C749        C  0.60553713  0.10674936  0.52854180    -0.32700
C750        C  0.64342285  0.13283144  0.54626703     0.36300
H751        H  0.59451214  0.05883564  0.59854866     0.16700
O752        O  0.52050034  0.00429537  0.56891888    -0.60200
H753        H  0.60939086  0.11920104  0.50870111     0.16700
O754        O  0.68445661  0.17346671  0.53800736    -0.60300
H755        H  0.70497286  0.16156714  0.53045852     0.43700
H756        H  0.50103695  0.01328598  0.58003085     0.43700
C757        C  0.88902274  0.35074423  0.57105708    -0.05400
C758        C  0.87550880  0.34216352  0.54479173    -0.32800
C759        C  0.89824619  0.37959116  0.52649243     0.36400
C760        C  0.93465234  0.42636368  0.53445479    -0.05700
C761        C  0.94608973  0.43526154  0.56082522    -0.32700
C762        C  0.92325031  0.39841243  0.57901087     0.36300
H763        H  0.84867743  0.30619759  0.53830248     0.16700
O764        O  0.88456095  0.37037488  0.50090677    -0.60200
H765        H  0.97413074  0.47068242  0.56735855     0.16700
O766        O  0.93543391  0.40937647  0.60465691    -0.60300
H767        H  0.91334061  0.42008527  0.61130609     0.43700
H768        H  0.89851941  0.35098367  0.49430184     0.43700
C769        C  0.07243386  0.83089112  0.79859911    -0.05400
C770        C  0.02896466  0.82756172  0.80685912    -0.32800
C771        C  0.99054634  0.81567981  0.78930147     0.36400
C772        C  0.99499757  0.80663046  0.76294936    -0.05700
C773        C  0.03930583  0.81192738  0.75466649    -0.32700
C774        C  0.07761075  0.82396791  0.77208755     0.36300
H775        H  0.02423400  0.83269139  0.82718690     0.16700
O776        O  0.94782399  0.80989001  0.79846006    -0.60200
H777        H  0.04346382  0.80422877  0.73466264     0.16700
O778        O  0.11851605  0.82494578  0.76339447    -0.60300
H779        H  0.13476014  0.85357383  0.75193372     0.43700
H780        H  0.92914333  0.77583918  0.80435881     0.43700
C781        C  0.08530959  0.28072785  0.79247926    -0.05400
C782        C  0.07699828  0.30779091  0.77419881    -0.32800
C783        C  0.03615146  0.28626216  0.75813978     0.36400
C784        C  0.00150841  0.23613734  0.76025106    -0.05700
C785        C  0.01107267  0.20857307  0.77795081    -0.32700
C786        C  0.05269771  0.23051352  0.79389192     0.36300
H787        H  0.10182152  0.34643079  0.77285489     0.16700
O788        O  0.03037700  0.31520066  0.74070135    -0.60200
H789        H  0.98558572  0.17026713  0.78004088     0.16700
O790        O  0.05956340  0.20317883  0.81191302    -0.60300
H791        H  0.07649821  0.18907665  0.80249032     0.43700
H792        H  0.01721256  0.33224722  0.75087020     0.43700
C793        C  0.27720441  0.34069453  0.63816975    -0.05400
C794        C  0.30731337  0.37680984  0.62053686    -0.32800
C795        C  0.31514244  0.42355886  0.62267496     0.36400
C796        C  0.29171373  0.43448038  0.64226563    -0.05700
C797        C  0.26023038  0.39813251  0.65927352    -0.32700
C798        C  0.25299179  0.35157733  0.65744826     0.36300
H799        H  0.32650715  0.36950701  0.60559914     0.16700
O800        O  0.34446202  0.45780585  0.60501644    -0.60200
H801        H  0.24159493  0.40601308  0.67430012     0.16700
O802        O  0.22349903  0.31764756  0.67516961    -0.60300
H803        H  0.19091697  0.30102721  0.66705082     0.43700
H804        H  0.37793323  0.46984898  0.61131534     0.43700
C805        C  0.36363931  0.98264408  0.68117348    -0.05400
C806        C  0.38417097  0.97390297  0.65926206    -0.32800
C807        C  0.37616167  0.92766907  0.65399081     0.36400
C808        C  0.34651004  0.88899945  0.67050428    -0.05700
C809        C  0.32615553  0.89755802  0.69241070    -0.32700
C810        C  0.33493346  0.94390597  0.69802949     0.36300
H811        H  0.40564682  0.00269335  0.64575075     0.16700
O812        O  0.39580199  0.92024444  0.63207071    -0.60200
H813        H  0.30416497  0.86836750  0.70561740     0.16700
O814        O  0.31382231  0.95032787  0.71959866    -0.60300
H815        H  0.33753342  0.95802616  0.73384251     0.43700
H816        H  0.43008707  0.93187234  0.63655595     0.43700
C817        C  0.20659258  0.99520534  0.76133843    -0.05400
C818        C  0.23064189  0.96902986  0.76487340    -0.32800
C819        C  0.21454736  0.93152818  0.78273275     0.36400
C820        C  0.17329020  0.91867973  0.79780320    -0.05700
C821        C  0.14825301  0.94381237  0.79412742    -0.32700
C822        C  0.16467135  0.98192368  0.77612472     0.36300
H823        H  0.26297560  0.97801874  0.75401837     0.16700
O824        O  0.23987255  0.90777390  0.78543541    -0.60200
H825        H  0.11647138  0.93451419  0.80558838     0.16700
O826        O  0.13932042  0.00552721  0.77309649    -0.60300
H827        H  0.15214411  0.03108031  0.78666257     0.43700
H828        H  0.22305203  0.87887614  0.77404328     0.43700
C829        C  0.21565353  0.23843886  0.75578580    -0.05400
C830        C  0.20690366  0.27581401  0.74879147    -0.32800
C831        C  0.18871366  0.29543759  0.76667049     0.36400
C832        C  0.17857528  0.27782808  0.79217932    -0.05700
C833        C  0.18636162  0.23994822  0.79921736    -0.32700
C834        C  0.20412730  0.21980619  0.78118605     0.36300
H835        H  0.21480675  0.29054015  0.72936431     0.16700
O836        O  0.18286482  0.33323955  0.75926440    -0.60200
H837        H  0.17961290  0.22669554  0.81895913     0.16700
O838        O  0.21243665  0.18380421  0.78903723    -0.60300
H839        H  0.18139499  0.15328078  0.78609212     0.43700
H840        H  0.21363201  0.36285561  0.76400169     0.43700
C841        C  0.42662015  0.08652498  0.56771342    -0.05400
C842        C  0.40551927  0.03591673  0.56619422    -0.32800
C843        C  0.42276117  0.01456243  0.54894151     0.36400
C844        C  0.46213335  0.04366845  0.53282151    -0.05700
C845        C  0.48296303  0.09417139  0.53384433    -0.32700
C846        C  0.46557403  0.11570811  0.55115917     0.36300
H847        H  0.37569800  0.01248413  0.57871213     0.16700
O848        O  0.40252237  0.96521644  0.54891569    -0.60200
H849        H  0.51298299  0.11694517  0.52128090     0.16700
O850        O  0.48764440  0.16515799  0.55211512    -0.60300
H851        H  0.51455936  0.17557639  0.56473902     0.43700
H852        H  0.37163516  0.95243647  0.53922444     0.43700
C853        C  0.44226142  0.33779516  0.56639449    -0.05400
C854        C  0.42152537  0.36746737  0.56801755    -0.32800
C855        C  0.43775843  0.40865132  0.55279035     0.36400
C856        C  0.47585218  0.42192003  0.53528619    -0.05700
C857        C  0.49820889  0.39375643  0.53403733    -0.32700
C858        C  0.48155645  0.35180410  0.54933509     0.36300
H859        H  0.39168812  0.35857241  0.58099791     0.16700
O860        O  0.41530936  0.43534670  0.55480298    -0.60200
H861        H  0.52766799  0.40351905  0.52062779     0.16700
O862        O  0.50360570  0.32480698  0.54720875    -0.60300
H863        H  0.48598034  0.30123830  0.53307492     0.43700
H864        H  0.43099587  0.45733126  0.56979346     0.43700
C865        C  0.96216472  0.27702805  0.98503878    -0.05400
C866        C  0.93100537  0.24279029  0.00323755    -0.32800
C867        C  0.93536061  0.20264908  0.00961047     0.36400
C868        C  0.97247748  0.19735970  0.99852067    -0.05700
C869        C  0.00367734  0.23160772  0.98052626    -0.32700
C870        C  0.99826893  0.27055599  0.97339551     0.36300
H871        H  0.90337815  0.24728556  0.01269573     0.16700
O872        O  0.90440818  0.16983511  0.02734749    -0.60200
H873        H  0.03165128  0.22737900  0.97126612     0.16700
O874        O  0.02993665  0.30312271  0.95582087    -0.60300
H875        H  0.01543197  0.28973545  0.93857900     0.43700
H876        H  0.87442880  0.14826389  0.01747534     0.43700
C877        C  0.04685568  0.72430141  0.01435199    -0.05400
C878        C  0.07969703  0.76123293  0.99789762    -0.32800
C879        C  0.07249716  0.79931147  0.99070952     0.36400
C880        C  0.03126692  0.80015709  0.99945204    -0.05700
C881        C  0.99802444  0.76266413  0.01531688    -0.32700
C882        C  0.00587857  0.72552018  0.02310605     0.36300
H883        H  0.11095208  0.76049980  0.99053502     0.16700
O884        O  0.10592767  0.83543199  0.97521693    -0.60200
H885        H  0.96656364  0.76305565  0.02264619     0.16700
O886        O  0.97208535  0.68949280  0.03846868    -0.60300
H887        H  0.97792884  0.70389312  0.05609908     0.43700
H888        H  0.09458070  0.82465251  0.95719949     0.43700
C889        C  0.09408871  0.68033199  0.90330474    -0.05400
C890        C  0.07026749  0.70722536  0.90418386    -0.32800
C891        C  0.08446569  0.74777884  0.88855213     0.36400
C892        C  0.12332637  0.76295547  0.87131787    -0.05700
C893        C  0.14684463  0.73589299  0.86982369    -0.32700
C894        C  0.13224056  0.69464374  0.88546664     0.36300
H895        H  0.04053310  0.69724080  0.91743845     0.16700
O896        O  0.06009544  0.77261891  0.89037828    -0.60200
H897        H  0.17623810  0.74645767  0.85627751     0.16700
O898        O  0.15661557  0.66984784  0.88377444    -0.60300
H899        H  0.13841871  0.64399017  0.87074857     0.43700
H900        H  0.07696777  0.79697393  0.90428824     0.43700
C901        C  0.11807348  0.44344993  0.90200187    -0.05400
C902        C  0.10213039  0.39401224  0.90584568    -0.32800
C903        C  0.11540744  0.36842599  0.88912666     0.36400
C904        C  0.14641888  0.39203259  0.86831715    -0.05700
C905        C  0.16529206  0.44202180  0.86516674    -0.32700
C906        C  0.15129937  0.46780222  0.88182491     0.36300
H907        H  0.07756541  0.37418569  0.92142896     0.16700
O908        O  0.09712491  0.31989815  0.89301774    -0.60200
H909        H  0.18955993  0.46068620  0.84923459     0.16700
O910        O  0.16952187  0.51624538  0.87784435    -0.60300
H911        H  0.14788620  0.51808220  0.86469290     0.43700
H912        H  0.06488593  0.30364123  0.88449986     0.43700
C913        C  0.20303161  0.22630691  0.01072797    -0.05400
C914        C  0.20079390  0.26730326  0.00311178    -0.32800
C915        C  0.23904073  0.31378461  0.00823748     0.36400
C916        C  0.28024052  0.31990255  0.02127908    -0.05700
C917        C  0.28293724  0.27921279  0.02860051    -0.32700
C918        C  0.24509602  0.23271341  0.02320398     0.36300
H919        H  0.16900431  0.26355067  0.99345821     0.16700
O920        O  0.23578558  0.35291464  0.00042622    -0.60200
H921        H  0.31528724  0.28341119  0.03776851     0.16700
O922        O  0.24958174  0.19406746  0.03058222    -0.60300
H923        H  0.26352114  0.18659795  0.01533242     0.43700
H924        H  0.22045590  0.36009666  0.01511558     0.43700
C925        C  0.72059081  0.67449538  0.97505492    -0.05400
C926        C  0.75339553  0.68145590  0.99504075    -0.32800
C927        C  0.79176191  0.72757314  0.00099494     0.36400
C928        C  0.79809034  0.76783816  0.98673273    -0.05700
C929        C  0.76564552  0.76092201  0.96665152    -0.32700
C930        C  0.72748329  0.71484686  0.96058717     0.36300
H931        H  0.74874066  0.65117098  0.00652282     0.16700
O932        O  0.82259442  0.73280128  0.02088634    -0.60200
H933        H  0.77036588  0.79125728  0.95515524     0.16700
O934        O  0.69618124  0.71021437  0.94112014    -0.60300
H935        H  0.71088650  0.70671066  0.92495857     0.43700
H936        H  0.80913347  0.73989032  0.03647807     0.43700
C937        C  0.58593242  0.74630717  0.86652628    -0.05400
C938        C  0.53553015  0.71496482  0.86727857    -0.32800
C939        C  0.51483589  0.67431485  0.88373399     0.36400
C940        C  0.54472791  0.66476248  0.89991824    -0.05700
C941        C  0.59494897  0.69753882  0.89957952    -0.32700
C942        C  0.61541313  0.73752014  0.88314232     0.36300
H943        H  0.51231621  0.72135152  0.85462649     0.16700
O944        O  0.46560347  0.64429323  0.88369655    -0.60200
H945        H  0.61906085  0.69205652  0.91194512     0.16700
O946        O  0.66452682  0.76858349  0.88377766    -0.60300
H947        H  0.67860428  0.75148583  0.87448273     0.43700
H948        H  0.45859603  0.62217787  0.86872503     0.43700
C949        C  0.23423151  0.38228137  0.87025771    -0.05400
C950        C  0.22587828  0.36073348  0.89468173    -0.32800
C951        C  0.26242616  0.37858553  0.91355839     0.36400
C952        C  0.30851344  0.41930953  0.90823726    -0.05700
C953        C  0.31611596  0.44154413  0.88384571    -0.32700
C954        C  0.27947163  0.42311639  0.86491982     0.36300
H955        H  0.19120226  0.32904677  0.89890035     0.16700
O956        O  0.25228923  0.35614697  0.93723299    -0.60200
H957        H  0.35087137  0.47269817  0.87919010     0.16700
O958        O  0.28859652  0.44441802  0.84098423    -0.60300
H959        H  0.27825477  0.46873817  0.84226495     0.43700
H960        H  0.25559447  0.32726249  0.93468956     0.43700
C961        C  0.79275789  0.99381439  0.96425056    -0.05400
C962        C  0.79654151  0.03395527  0.97774401    -0.32800
C963        C  0.75723780  0.04129201  0.97971239     0.36400
C964        C  0.71309875  0.00890043  0.96760997    -0.05700
C965        C  0.70995834  0.97023381  0.95291913    -0.32700
C966        C  0.74895100  0.96191721  0.95165681     0.36300
H967        H  0.82972939  0.05900018  0.98778074     0.16700
O968        O  0.76206647  0.07953206  0.99414635    -0.60200
H969        H  0.67639820  0.94490933  0.94340697     0.16700
O970        O  0.74390970  0.92283470  0.93799051    -0.60300
H971        H  0.72556981  0.89467419  0.94955433     0.43700
H972        H  0.76965796  0.10555973  0.98143346     0.43700
C973        C  0.20482569  0.99978620  0.03645942    -0.05400
C974        C  0.24889713  0.03359126  0.04798451    -0.32800
C975        C  0.28881965  0.02673662  0.04717165     0.36400
C976        C  0.28540186  0.98626594  0.03403080    -0.05700
C977        C  0.24109360  0.95184982  0.02335956    -0.32700
C978        C  0.20113587  0.95808162  0.02456406     0.36300
H979        H  0.25276038  0.06584788  0.05713272     0.16700
O980        O  0.33199035  0.06179313  0.05746133    -0.60200
H981        H  0.23779936  0.92069129  0.01315607     0.16700
O982        O  0.15929908  0.92415546  0.01264551    -0.60300
H983        H  0.16260633  0.93465624  0.99431201     0.43700
H984        H  0.33110947  0.05301568  0.07596097     0.43700
C985        C  0.22105796  0.85746004  0.87392658    -0.05400
C986        C  0.21556013  0.86973236  0.89930983    -0.32800
C987        C  0.25436296  0.88892848  0.91708938     0.36400
C988        C  0.30024971  0.89620989  0.90983093    -0.05700
C989        C  0.30498528  0.88180391  0.88469039    -0.32700
C990        C  0.26616794  0.86313711  0.86681899     0.36300
H991        H  0.18146408  0.86625768  0.90508435     0.16700
O992        O  0.24695130  0.90101416  0.94149193    -0.60200
H993        H  0.33934757  0.88637621  0.87857062     0.16700
O994        O  0.27327306  0.85225363  0.84207466    -0.60300
H995        H  0.25875858  0.81662289  0.84175561     0.43700
H996        H  0.23862252  0.87234568  0.95233680     0.43700
C997        C  0.51847191  0.85490271  0.90404535    -0.05400
C998        C  0.50461735  0.84802916  0.87779810    -0.32800
C999        C  0.52972974  0.83631875  0.85947925     0.36400
C1000       C  0.56887220  0.83074575  0.86733331    -0.05700
C1001       C  0.57997408  0.83370980  0.89382879    -0.32700
C1002       C  0.55517328  0.84554658  0.91205273     0.36300
H1003       H  0.47677428  0.85520780  0.87115804     0.16700
O1004       O  0.51646082  0.83133602  0.83383877    -0.60200
H1005       H  0.60966699  0.82925944  0.90031348     0.16700
O1006       O  0.56799021  0.84929924  0.93773952    -0.60300
H1007       H  0.59764368  0.88140437  0.93958584     0.43700
H1008       H  0.53166657  0.86477485  0.82704380     0.43700
C1009       C  0.86018165  0.61150308  0.12761891    -0.05400
C1010       C  0.84016961  0.56125837  0.13051131    -0.32800
C1011       C  0.85765828  0.53602213  0.11589265     0.36400
C1012       C  0.89553501  0.56114096  0.09799731    -0.05700
C1013       C  0.91361643  0.61108862  0.09464636    -0.32700
C1014       C  0.89631683  0.63596948  0.10907727     0.36300
H1015       H  0.81229590  0.54196925  0.14483970     0.16700
O1016       O  0.83809859  0.48732230  0.11963325    -0.60200
H1017       H  0.94236672  0.63170715  0.08105027     0.16700
O1018       O  0.91630303  0.68484782  0.10560534    -0.60300
H1019       H  0.90014369  0.68811648  0.08995669     0.43700
H1020       H  0.85759919  0.48458032  0.13377329     0.43700
C1021       C  0.76424833  0.60837550  0.12637376    -0.05400
C1022       C  0.77363257  0.62518873  0.10081897    -0.32800
C1023       C  0.73683386  0.60680827  0.08206585     0.36400
C1024       C  0.68927642  0.57023833  0.08853029    -0.05700
C1025       C  0.68048980  0.55176119  0.11392037    -0.32700
C1026       C  0.71743232  0.57079213  0.13277941     0.36300
H1027       H  0.80927750  0.65432908  0.09560747     0.16700
O1028       O  0.74803806  0.62483824  0.05737180    -0.60200
H1029       H  0.64456627  0.52354928  0.11940781     0.16700
O1030       O  0.70708876  0.55341938  0.15762080    -0.60300
H1031       H  0.71760103  0.52920634  0.15864809     0.43700
H1032       H  0.74739631  0.65544141  0.05789060     0.43700
C1033       C  0.67197751  0.11911964  0.32529898    -0.05400
C1034       C  0.63897084  0.08235327  0.34157120    -0.32800
C1035       C  0.62892339  0.03486920  0.33828788     0.36400
C1036       C  0.65118727  0.02363292  0.31796389    -0.05700
C1037       C  0.68341643  0.06076020  0.30140261    -0.32700
C1038       C  0.69402681  0.10818184  0.30506181     0.36300
H1039       H  0.62141550  0.09064186  0.35703417     0.16700
O1040       O  0.59853490  0.00031044  0.35550002    -0.60200
H1041       H  0.70153882  0.05342460  0.28586775     0.16700
O1042       O  0.72544020  0.14352781  0.28849485    -0.60300
H1043       H  0.70490714  0.14410386  0.27422948     0.43700
H1044       H  0.56590415  0.98573122  0.34753753     0.43700
C1045       C  0.69034101  0.55459211  0.35847211    -0.05400
C1046       C  0.72902424  0.58990733  0.34388474    -0.32800
C1047       C  0.74310679  0.63866506  0.34621668     0.36400
C1048       C  0.71854675  0.65272721  0.36350497    -0.05700
C1049       C  0.68197844  0.61754480  0.37934855    -0.32700
C1050       C  0.66742001  0.56871846  0.37669753     0.36300
H1051       H  0.74807578  0.57952446  0.33037884     0.16700
O1052       O  0.77992085  0.67194343  0.33101539    -0.60200
H1053       H  0.66279872  0.62743577  0.39298218     0.16700
O1054       O  0.63203726  0.53540134  0.39258979    -0.60300
H1055       H  0.60106497  0.52681137  0.38387641     0.43700
H1056       H  0.80961763  0.68372765  0.34168973     0.43700
C1057       C  0.53284510  0.95473967  0.46103381    -0.05400
C1058       C  0.51669673  0.90508224  0.46165334    -0.32800
C1059       C  0.53788328  0.88534582  0.44567766     0.36400
C1060       C  0.57593615  0.91557656  0.42880283    -0.05700
C1061       C  0.59143911  0.96527306  0.42824688    -0.32700
C1062       C  0.57048159  0.98479497  0.44420540     0.36300
H1063       H  0.48798003  0.88170426  0.47476195     0.16700
O1064       O  0.52095939  0.83661125  0.44669440    -0.60200
H1065       H  0.61998975  0.98945980  0.41528307     0.16700
O1066       O  0.58598990  0.03323877  0.44267879    -0.60300
H1067       H  0.61639556  0.04969022  0.45293789     0.43700
H1068       H  0.49247529  0.82162926  0.43493292     0.43700
C1069       C  0.56087525  0.66546023  0.43334859    -0.05400
C1070       C  0.57574559  0.63124793  0.42992932    -0.32800
C1071       C  0.55847910  0.59049572  0.44565487     0.36400
C1072       C  0.52499983  0.58223171  0.46530005    -0.05700
C1073       C  0.50799945  0.61478743  0.46825084    -0.32700
C1074       C  0.52589824  0.65637409  0.45253882     0.36300
H1075       H  0.60185402  0.63638349  0.41518355     0.16700
O1076       O  0.57555643  0.55934386  0.44208859    -0.60200
H1077       H  0.48206465  0.60878252  0.48331032     0.16700
O1078       O  0.50982057  0.68818556  0.45656211    -0.60300
H1079       H  0.53263157  0.71194556  0.46940004     0.43700
H1080       H  0.55475048  0.53654230  0.42833431     0.43700
C1081       C  0.78118728  0.75478665  0.24210480    -0.05400
C1082       C  0.81463512  0.78484373  0.22327134    -0.32800
C1083       C  0.83131007  0.76554937  0.20409857     0.36400
C1084       C  0.81447607  0.71559917  0.20351457    -0.05700
C1085       C  0.78124866  0.68567048  0.22212666    -0.32700
C1086       C  0.76498204  0.70463074  0.24139262     0.36300
H1087       H  0.82808595  0.82338804  0.22344319     0.16700
O1088       O  0.86362071  0.79562753  0.18592556    -0.60200
H1089       H  0.76782984  0.64710247  0.22173260     0.16700
O1090       O  0.73221520  0.67326777  0.25902698    -0.60300
H1091       H  0.75183411  0.66856566  0.27234910     0.43700
H1092       H  0.84348798  0.79692331  0.17167018     0.43700
C1093       C  0.46129681  0.13005441  0.32969045    -0.05400
C1094       C  0.41985290  0.13019713  0.32093413    -0.32800
C1095       C  0.37365443  0.09036769  0.32547985     0.36400
C1096       C  0.36862307  0.05091579  0.34005640    -0.05700
C1097       C  0.41015053  0.05196758  0.34963610    -0.32700
C1098       C  0.45614041  0.09066264  0.34421033     0.36300
H1099       H  0.42336528  0.16092818  0.31030739     0.16700
O1100       O  0.33373333  0.09077066  0.31614657    -0.60200
H1101       H  0.40712908  0.02173796  0.36057928     0.16700
O1102       O  0.49585333  0.09073945  0.35427658    -0.60300
H1103       H  0.50231671  0.07054673  0.34219856     0.43700
H1104       H  0.33184007  0.08237645  0.29748270     0.43700
C1105       C  0.98068117  0.60973125  0.32344801    -0.05400
C1106       C  0.93934352  0.61412860  0.32212332    -0.32800
C1107       C  0.89563678  0.57885902  0.33287913     0.36400
C1108       C  0.89279488  0.53825748  0.34514928    -0.05700
C1109       C  0.93409821  0.53366590  0.34613818    -0.32700
C1110       C  0.97776358  0.56895110  0.33536414     0.36300
H1111       H  0.94122357  0.64572238  0.31334808     0.16700
O1112       O  0.85586403  0.58416151  0.33096513    -0.60200
H1113       H  0.93242550  0.50243339  0.35521566     0.16700
O1114       O  0.01732874  0.56322934  0.33655312    -0.60300
H1115       H  0.01786300  0.54868159  0.31964147     0.43700
H1116       H  0.84190929  0.57132163  0.31355714     0.43700
C1117       C  0.10377453  0.64879437  0.42445890    -0.05400
C1118       C  0.11846295  0.65801319  0.45055001    -0.32800
C1119       C  0.09730076  0.62092674  0.46906063     0.36400
C1120       C  0.06134335  0.57371345  0.46153701    -0.05700
C1121       C  0.04904761  0.56405666  0.43525567    -0.32700
C1122       C  0.06988191  0.60085855  0.41684309     0.36300
H1123       H  0.14475194  0.69435422  0.45679004     0.16700
O1124       O  0.11049677  0.63164839  0.49462048    -0.60200
H1125       H  0.02125936  0.52829718  0.42904572     0.16700
O1126       O  0.05671662  0.58949884  0.39131252    -0.60300
H1127       H  0.02458970  0.58680770  0.38977532     0.43700
H1128       H  0.13313385  0.61971265  0.49796029     0.43700
C1129       C  0.35257877  0.87908168  0.42320858    -0.05400
C1130       C  0.39702219  0.91791960  0.41477841    -0.32800
C1131       C  0.43495120  0.94448046  0.43228926     0.36400
C1132       C  0.42914813  0.93205338  0.45872626    -0.05700
C1133       C  0.38575231  0.89160657  0.46692838    -0.32700
C1134       C  0.34768373  0.86504709  0.44939277     0.36300
H1135       H  0.40137531  0.92956230  0.39475381     0.16700
O1136       O  0.47614692  0.98455247  0.42367154    -0.60200
H1137       H  0.38048029  0.88215938  0.48729832     0.16700
O1138       O  0.30425691  0.82889933  0.45859614    -0.60300
H1139       H  0.30747276  0.79973186  0.45909460     0.43700
H1140       H  0.46974930  0.01164351  0.42536506     0.43700
C1141       C  0.99385825  0.77762163  0.23532206    -0.05400
C1142       C  0.99851624  0.79250026  0.20935038    -0.32800
C1143       C  0.95964037  0.76855430  0.19180670     0.36400
C1144       C  0.91482140  0.72997921  0.20026385    -0.05700
C1145       C  0.90926240  0.71735589  0.22655963    -0.32700
C1146       C  0.94823988  0.74047930  0.24395555     0.36300
H1147       H  0.03315911  0.82072649  0.20223454     0.16700
O1148       O  0.96591152  0.78260667  0.16632989    -0.60200
H1149       H  0.87519738  0.68773999  0.23341717     0.16700
O1150       O  0.94153692  0.72608670  0.26939236    -0.60300
H1151       H  0.94161778  0.69518116  0.26952211     0.43700
H1152       H  0.98326795  0.76756724  0.15832076     0.43700
C1153       C  0.87226796  0.23437968  0.12758943    -0.05400
C1154       C  0.88024129  0.27913287  0.13718607    -0.32800
C1155       C  0.89593805  0.31955707  0.12079377     0.36400
C1156       C  0.90545498  0.31623474  0.09442403    -0.05700
C1157       C  0.89658467  0.27101815  0.08491560    -0.32700
C1158       C  0.88031080  0.23068995  0.10112861     0.36300
H1159       H  0.87488643  0.28288228  0.15760681     0.16700
O1160       O  0.90418111  0.36258070  0.13107484    -0.60200
H1161       H  0.90291989  0.26684215  0.06469230     0.16700
O1162       O  0.87397326  0.18820768  0.09103100    -0.60300
H1163       H  0.90563352  0.19011958  0.09326512     0.43700
H1164       H  0.87292310  0.36169212  0.12936776     0.43700
C1165       C  0.69583084  0.09336974  0.09067091    -0.05400
C1166       C  0.71063392  0.13654493  0.10474476    -0.32800
C1167       C  0.75145490  0.15626137  0.12140184     0.36400
C1168       C  0.77875668  0.13311275  0.12424365    -0.05700
C1169       C  0.76422310  0.09043558  0.10998030    -0.32700
C1170       C  0.72371002  0.07069596  0.09348051     0.36300
H1171       H  0.69056256  0.15523512  0.10281454     0.16700
O1172       O  0.76345726  0.19744118  0.13524235    -0.60200
H1173       H  0.78403037  0.07147488  0.11208623     0.16700
O1174       O  0.71064751  0.02789497  0.08101012    -0.60300
H1175       H  0.73255020  0.03685738  0.06588368     0.43700
H1176       H  0.74857074  0.18604646  0.15252884     0.43700
C1177       C  0.80292087  0.00624834  0.23821736    -0.05400
C1178       C  0.78194089  0.03579072  0.23734151    -0.32800
C1179       C  0.79681708  0.07318053  0.21943981     0.36400
C1180       C  0.83379429  0.08264577  0.20181672    -0.05700
C1181       C  0.85656947  0.05495082  0.20306925    -0.32700
C1182       C  0.84124555  0.01678054  0.22101163     0.36300
H1183       H  0.75263964  0.02937217  0.25020674     0.16700
O1184       O  0.77374425  0.09942344  0.21869976    -0.60200
H1185       H  0.88532200  0.06205608  0.18963404     0.16700
O1186       O  0.86376014  0.99008089  0.22139461    -0.60300
H1187       H  0.84735388  0.96509023  0.20772498     0.43700
H1188       H  0.78690436  0.12214130  0.23359384     0.43700
C1189       C  0.40741173  0.24713906  0.13012071    -0.05400
C1190       C  0.37811750  0.25634954  0.11383894    -0.32800
C1191       C  0.39797959  0.29560079  0.09699068     0.36400
C1192       C  0.44883363  0.32720801  0.09584211    -0.05700
C1193       C  0.47842526  0.31722575  0.11180038    -0.32700
C1194       C  0.45804290  0.27748325  0.12885377     0.36300
H1195       H  0.33913567  0.23308140  0.11443296     0.16700
O1196       O  0.36681515  0.30241319  0.08173511    -0.60200
H1197       H  0.51732940  0.34075440  0.11149166     0.16700
O1198       O  0.48758829  0.27001991  0.14509095    -0.60300
H1199       H  0.50527729  0.25925928  0.13370249     0.43700
H1200       H  0.35504364  0.31945994  0.09296642     0.43700
C1201       C  0.47876269  0.13822836  0.09658527    -0.05400
C1202       C  0.48248030  0.13474198  0.12351355    -0.32800
C1203       C  0.45557937  0.14624992  0.14061850     0.36400
C1204       C  0.42346327  0.16075074  0.13095626    -0.05700
C1205       C  0.42220748  0.16704231  0.10404441    -0.32700
C1206       C  0.44989745  0.15653052  0.08704514     0.36300
H1207       H  0.50375366  0.11999407  0.13126076     0.16700
O1208       O  0.45930120  0.14102459  0.16676989    -0.60200
H1209       H  0.39807735  0.17803922  0.09595884     0.16700
O1210       O  0.44783848  0.16329527  0.06090714    -0.60300
H1211       H  0.41851393  0.13390091  0.05453154     0.43700
H1212       H  0.48243349  0.17400682  0.17326735     0.43700
C1213       C  0.30154935  0.08777005  0.20094150    -0.05400
C1214       C  0.25220261  0.05370742  0.19723172    -0.32800
C1215       C  0.22902563  0.01125221  0.21229813     0.36400
C1216       C  0.25546608  0.00240307  0.23126631    -0.05700
C1217       C  0.30510328  0.03677427  0.23440334    -0.32700
C1218       C  0.32785860  0.07869923  0.21955757     0.36300
H1219       H  0.23187554  0.05969331  0.18236755     0.16700
O1220       O  0.18095741  0.97871314  0.20811185    -0.60200
H1221       H  0.32688296  0.03178485  0.24877988     0.16700
O1222       O  0.37602858  0.11125097  0.22365047    -0.60300
H1223       H  0.39359429  0.09814821  0.21393877     0.43700
H1224       H  0.16336603  0.99089488  0.21854873     0.43700
C1225       C  0.45804805  0.31183853  0.37364235    -0.05400
C1226       C  0.42056859  0.27097824  0.36085389    -0.32800
C1227       C  0.37471681  0.26528595  0.35783862     0.36400
C1228       C  0.36499751  0.29964842  0.36861631    -0.05700
C1229       C  0.40145503  0.33884847  0.38287877    -0.32700
C1230       C  0.44804263  0.34566118  0.38494400     0.36300
H1231       H  0.42748511  0.24457832  0.35171819     0.16700
O1232       O  0.33988850  0.22636038  0.34413256    -0.60200
H1233       H  0.39472239  0.36599641  0.39115197     0.16700
O1234       O  0.48342156  0.38546858  0.39781839    -0.60300
H1235       H  0.49492152  0.41243305  0.38526242     0.43700
H1236       H  0.34802109  0.23475161  0.32561681     0.43700
C1237       C  0.98728520  0.36150829  0.30244180    -0.05400
C1238       C  0.98357854  0.39919569  0.31371551    -0.32800
C1239       C  0.93921166  0.39739511  0.31457831     0.36400
C1240       C  0.89694504  0.35654225  0.30474367    -0.05700
C1241       C  0.90102486  0.31975584  0.29241039    -0.32700
C1242       C  0.94594272  0.32240581  0.29081105     0.36300
H1243       H  0.01484011  0.42928169  0.32289817     0.16700
O1244       O  0.93698149  0.43386439  0.32725043    -0.60200
H1245       H  0.86912579  0.28815239  0.28477198     0.16700
O1246       O  0.94803152  0.28434160  0.28006382    -0.60300
H1247       H  0.95286210  0.29147448  0.26124899     0.43700
H1248       H  0.94478098  0.45892282  0.31388697     0.43700
C1249       C  0.08839250  0.43491234  0.42468442    -0.05400
C1250       C  0.11730926  0.46925690  0.44373612    -0.32800
C1251       C  0.09726995  0.48811316  0.46135625     0.36400
C1252       C  0.04752899  0.47263476  0.46029983    -0.05700
C1253       C  0.01883014  0.43872910  0.44136958    -0.32700
C1254       C  0.03861027  0.42054740  0.42353432     0.36300
H1255       H  0.15555634  0.48158316  0.44502183     0.16700
O1256       O  0.12646508  0.52110482  0.47973520    -0.60200
H1257       H  0.98051469  0.42631821  0.44033011     0.16700
O1258       O  0.00827725  0.38799928  0.40528853    -0.60300
H1259       H  0.00742306  0.40796577  0.39085464     0.43700
H1260       H  0.12335517  0.50170895  0.49532867     0.43700
C1261       C  0.34509817  0.46609447  0.43068473    -0.05400
C1262       C  0.33868083  0.46815986  0.45751333    -0.32800
C1263       C  0.37745576  0.48180421  0.47496784     0.36400
C1264       C  0.42384290  0.49415332  0.46574994    -0.05700
C1265       C  0.43071830  0.49504058  0.43881458    -0.32700
C1266       C  0.39194768  0.48095126  0.42143800     0.36300
H1267       H  0.30287196  0.45607106  0.46509561     0.16700
O1268       O  0.36895724  0.48040578  0.50110017    -0.60200
H1269       H  0.46562464  0.50383461  0.43117886     0.16700
O1270       O  0.39988527  0.48054134  0.39532487    -0.60300
H1271       H  0.40057012  0.45036839  0.39212947     0.43700
H1272       H  0.38248920  0.51463928  0.50641884     0.43700
C1273       C  0.00472893  0.19632020  0.23762916    -0.05400
C1274       C  0.96365730  0.19913277  0.24450530    -0.32800
C1275       C  0.92636718  0.18835373  0.22668089     0.36400
C1276       C  0.92907163  0.17390491  0.20131036    -0.05700
C1277       C  0.96859095  0.16839683  0.19461689    -0.32700
C1278       C  0.00629308  0.17952747  0.21253134     0.36300
H1279       H  0.96132053  0.21176371  0.26365308     0.16700
O1280       O  0.88869453  0.19471599  0.23374883    -0.60200
H1281       H  0.97077100  0.15656253  0.17522550     0.16700
O1282       O  0.04537947  0.17610760  0.20487801    -0.60300
H1283       H  0.06703359  0.20699545  0.19593659     0.43700
H1284       H  0.87132690  0.17066471  0.24757004     0.43700
C1285       C  0.25738665  0.21637320  0.24306320    -0.05400
C1286       C  0.23770199  0.20445076  0.21782664    -0.32800
C1287       C  0.25713099  0.18723587  0.19886446     0.36400
C1288       C  0.29601811  0.18009165  0.20500423    -0.05700
C1289       C  0.31379461  0.18921549  0.23053314    -0.32700
C1290       C  0.29526359  0.20743128  0.24933219     0.36300
H1291       H  0.20826035  0.21012353  0.21245155     0.16700
O1292       O  0.23801114  0.17769695  0.17427382    -0.60200
H1293       H  0.34381698  0.18428236  0.23566616     0.16700
O1294       O  0.31426168  0.21584809  0.27394022    -0.60300
H1295       H  0.34497241  0.24729756  0.27301481     0.43700
H1296       H  0.25400499  0.20937154  0.16533022     0.43700
loop_ 
_geom_bond_atom_site_label_1 
_geom_bond_atom_site_label_2 
_geom_bond_distance 
_geom_bond_site_symmetry_2 
_ccdc_geom_bond_type 
O1           Mg3   2.173       .  S
O1           Mg9   2.142       .  S
O1           C36   1.236       .  S
C2           O15   1.232       .  S
C2           O39   1.266       .  A
C2           H41   1.081       .  S
Mg3          O32   2.161       .  S
Mg3          O47   2.290       .  S
Mg3          O43   2.253       .  S
Mg3          O14   2.283       .  S
O4          Mg46   2.164       .  S
O4          Mg29   2.178       .  S
O4           C25   1.241       .  S
O5           C36   1.272       .  A
O5          Mg29   2.313       .  S
C6            O8   1.279       .  A
C6           O20   1.273       .  A
C6         C1261   1.491       .  S
O7           C35   1.274       .  A
O7           Mg9   2.308       .  S
O8          Mg40   2.336       .  S
Mg9          O15   2.132       .  S
Mg9          O23   2.238       .  S
Mg9          O11   2.256       .  S
C10          O48   1.262       .  A
C10          O16   1.274       .  A
C10        C1228   1.471       .  S
O11          C18   1.269       .  A
H12          C25   1.081       .  S
C13          O27   1.236       .  S
C13          O28   1.274       .  A
C13          H38   1.081       .  S
O14          C37   1.265       .  A
O15         Mg29   2.165       .  S
O16         Mg46   2.305       .  S
C17          O30   1.278       .  A
C17          O22   1.286       .  A
C17        C1285   1.508       .  S
C18          O45   1.282       .  A
C18        C1273   1.497       .  S
Mg19         O26   2.120       .  S
Mg19         O27   2.148       .  S
Mg19         O20   2.299       .  S
Mg19         O21   2.318       .  S
Mg19         O48   2.203       .  S
O21          C25   1.276       .  A
O22         Mg29   2.380       .  S
O23          C42   1.264       .  A
O24          C44   1.285       .  A
O24         Mg40   2.380       .  S
O26         Mg40   2.157       .  S
O26          C37   1.233       .  S
O27         Mg46   2.201       .  S
O28         Mg40   2.325       .  S
Mg29         O45   2.362       .  S
O30         Mg46   2.299       .  S
H31          C36   1.081       .  S
O32         Mg40   2.158       .  S
O32          C35   1.239       .  S
H33          C35   1.081       .  S
H34          C37   1.081       .  S
O39         Mg46   2.290       .  S
C42          O47   1.271       .  A
C42        C1237   1.474   1_455  S
O43          C44   1.272       .  A
C44        C1249   1.506       .  S
C49        C1213   1.483       .  S
C49          C50   1.417       .  A
C49          C54   1.411       .  A
C50        C1288   1.502       .  S
C50          C51   1.407       .  A
C51          H56   1.085       .  S
C51          C52   1.414       .  A
C52        C1189   1.487       .  S
C52          C53   1.419       .  A
C53        C1204   1.505       .  S
C53          C54   1.408       .  A
C54          H55   1.084       .  S
C57        C1276   1.494       .  S
C57          C58   1.409       .  A
C57          C62   1.412       .  A
C58        C1180   1.489       .  S
C58          C59   1.406       .  A
C59          H64   1.085       .  S
C59          C60   1.411       .  A
C60        C1168   1.506       .  S
C60          C61   1.427       .  A
C61        C1153   1.498       .  S
C61          C62   1.419       .  A
C62          H63   1.084       .  S
O65         Mg67   2.140       .  S
O65         Mg73   2.125       .  S
O65         C100   1.231       .  S
C66          O79   1.236       .  S
C66         O103   1.270       .  A
C66         H105   1.081       .  S
Mg67         O96   2.141       .  S
Mg67        O111   2.277       .  S
Mg67        O107   2.193       .  S
Mg67         O78   2.285       .  S
O68        Mg110   2.130       .  S
O68         Mg93   2.162       .  S
O68          C89   1.241       .  S
O69         C100   1.266       .  A
O69         Mg93   2.295       .  S
C70          O72   1.279       .  A
C70          O84   1.275       .  A
C70        C1141   1.490   1_455  S
O71          C99   1.275       .  A
O71         Mg73   2.317       .  S
O72        Mg104   2.314       .  S
Mg73         O79   2.135       .  S
Mg73         O87   2.256       .  S
Mg73         O75   2.288       .  S
C74         O112   1.264       .  A
C74          O80   1.262       .  A
C74        C1105   1.469   1_455  S
O75          C82   1.274       .  A
H76          C89   1.081       .  S
C77          O91   1.233       .  S
C77          O92   1.270       .  A
C77         H102   1.081       .  S
O78         C101   1.269       .  A
O79         Mg93   2.173       .  S
O80        Mg110   2.266       .  S
C81          O94   1.268       .  A
C81          O86   1.279       .  A
C81        C1117   1.487       .  S
C82         O109   1.278       .  A
C82        C1129   1.482       .  S
Mg83         O90   2.131       .  S
Mg83         O91   2.134       .  S
Mg83         O84   2.304       .  S
Mg83         O85   2.343       .  S
Mg83        O112   2.264       .  S
O85          C89   1.279       .  A
O86         Mg93   2.351       .  S
O87         C106   1.268   1_565  A
O88         C108   1.282       .  A
O88        Mg104   2.375       .  S
O90        Mg104   2.178       .  S
O90         C101   1.236       .  S
O91        Mg110   2.177       .  S
O92        Mg104   2.316       .  S
Mg93        O109   2.300       .  S
O94        Mg110   2.231       .  S
H95         C100   1.081       .  S
O96        Mg104   2.157       .  S
O96          C99   1.240       .  S
H97          C99   1.081       .  S
H98         C101   1.081       .  S
O103       Mg110   2.296       .  S
C106        O111   1.266   1_545  A
C106       C1096   1.473       .  S
O107        C108   1.265       .  A
C108       C1216   1.496   1_565  S
O113       Mg115   2.154       .  S
O113       Mg121   2.139       .  S
O113        C148   1.232       .  S
C114        O127   1.235       .  S
C114        O151   1.267       .  A
C114        H153   1.081       .  S
Mg115       O144   2.148       .  S
Mg115       O159   2.288       .  S
Mg115       O155   2.238       .  S
Mg115       O126   2.288       .  S
O116       Mg158   2.144       .  S
O116       Mg141   2.146       .  S
O116        C137   1.238       .  S
O117        C148   1.267       .  A
O117       Mg141   2.295       .  S
C118        O120   1.279       .  A
C118        O132   1.271       .  A
C118       C1177   1.499   1_565  S
O119        C147   1.276       .  A
O119       Mg121   2.318       .  S
O120       Mg152   2.336       .  S
Mg121       O127   2.107       .  S
Mg121       O135   2.207       .  S
Mg121       O123   2.268       .  S
C122        O160   1.264       .  A
C122        O128   1.263       .  A
C122       C1036   1.475   1_565  S
O123        C130   1.272       .  A
H124        C137   1.081       .  S
C125        O139   1.234       .  S
C125        O140   1.269       .  A
C125        H150   1.081       .  S
O126        C149   1.267       .  A
O127       Mg141   2.184       .  S
O128       Mg158   2.260       .  S
C129        O142   1.270       .  A
C129        O134   1.279       .  A
C129       C1060   1.488       .  S
C130        O157   1.279       .  A
C130       C1069   1.498       .  S
Mg131       O138   2.119       .  S
Mg131       O139   2.140       .  S
Mg131       O132   2.262       .  S
Mg131       O133   2.318       .  S
Mg131       O160   2.235       .  S
O133        C137   1.274       .  A
O134       Mg141   2.336       .  S
O135        C154   1.263       .  A
O136        C156   1.282       .  A
O136       Mg152   2.350       .  S
O138       Mg152   2.180       .  S
O138        C149   1.234       .  S
O139       Mg158   2.169       .  S
O140       Mg152   2.307       .  S
Mg141       O157   2.330       .  S
O142       Mg158   2.228       .  S
H143        C148   1.081       .  S
O144       Mg152   2.161       .  S
O144        C147   1.240       .  S
H145        C147   1.081       .  S
H146        C149   1.081       .  S
O151       Mg158   2.280       .  S
C154        O159   1.270       .  A
C154       C1048   1.472       .  S
O155        C156   1.270       .  A
C156       C1081   1.493       .  S
C161       C1144   1.493       .  S
C161        C162   1.414       .  A
C161        C166   1.407       .  A
C162       C1084   1.482       .  S
C162        C163   1.407       .  A
C163        H168   1.085       .  S
C163        C164   1.405       .  A
C164       C1021   1.489       .  S
C164        C165   1.414       .  A
C165       C1009   1.487       .  S
C165        C166   1.409       .  A
C166        H167   1.084       .  S
O169       Mg171   2.186   1_544  S
O169       Mg177   2.147       .  S
O169        C204   1.236       .  S
C170        O183   1.233   1_565  S
C170        O207   1.266       .  A
C170        H209   1.081       .  S
Mg171       O200   2.163       .  S
Mg171       O215   2.312   1_556  S
Mg171       O211   2.292       .  S
Mg171       O182   2.293   1_565  S
O172       Mg214   2.166       .  S
O172       Mg197   2.165       .  S
O172        C193   1.239   1_554  S
O173        C204   1.273       .  A
O173       Mg197   2.322       .  S
C174        O176   1.280       .  A
C174        O188   1.269       .  A
C174        C997   1.489       .  S
O175        C203   1.274       .  A
O175       Mg177   2.313   1_565  S
O176       Mg208   2.347       .  S
Mg177       O183   2.142       .  S
Mg177       O191   2.231   1_545  S
Mg177       O179   2.267       .  S
C178        O216   1.267   1_545  A
C178        O184   1.274       .  A
C178        C964   1.483       .  S
O179        C186   1.269       .  A
H180        C193   1.081       .  S
C181        O195   1.236       .  S
C181        O196   1.273       .  A
C181        H206   1.081   1_556  S
O182        C205   1.267       .  A
O183       Mg197   2.166       .  S
O184       Mg214   2.306   1_556  S
C185        O198   1.275       .  A
C185        O190   1.286       .  A
C185       C1165   1.508       .  S
C186        O213   1.280       .  A
C186       C1201   1.486       .  S
Mg187       O194   2.147       .  S
Mg187       O195   2.144       .  S
Mg187       O188   2.257       .  S
Mg187       O189   2.309   1_565  S
Mg187       O216   2.253       .  S
O189        C193   1.274       .  A
O190       Mg197   2.385       .  S
O191        C210   1.264       .  A
O192        C212   1.286       .  A
O192       Mg208   2.381       .  S
O194       Mg208   2.167       .  S
O194        C205   1.233   1_565  S
O195       Mg214   2.179   1_566  S
O196       Mg208   2.318       .  S
Mg197       O213   2.346       .  S
O198       Mg214   2.275       .  S
H199        C204   1.081   1_556  S
O200       Mg208   2.171       .  S
O200        C203   1.239   1_556  S
H201        C203   1.081       .  S
H202        C205   1.081       .  S
O207       Mg214   2.288   1_565  S
C210        O215   1.275       .  A
C210        C976   1.478       .  S
O211        C212   1.277       .  A
C212        C988   1.507       .  S
O217       Mg219   2.177   1_556  S
O217       Mg225   2.145       .  S
O217        C252   1.233       .  S
C218        O231   1.236       .  S
C218        O255   1.270       .  A
C218        H257   1.081       .  S
Mg219       O248   2.133       .  S
Mg219       O263   2.262   1_554  S
Mg219       O259   2.258       .  S
Mg219       O230   2.288       .  S
O220       Mg262   2.128       .  S
O220       Mg245   2.133       .  S
O220        C241   1.240   1_556  S
O221        C252   1.269       .  A
O221       Mg245   2.306       .  S
C222        O224   1.278       .  A
C222        O236   1.268       .  A
C222       C1192   1.496       .  S
O223        C251   1.277       .  A
O223       Mg225   2.327       .  S
O224       Mg256   2.322       .  S
Mg225       O231   2.129       .  S
Mg225       O239   2.245       .  S
Mg225       O227   2.293       .  S
C226        O264   1.262       .  A
C226        O232   1.262       .  A
C226        C916   1.461       .  S
O227        C234   1.275       .  A
H228        C241   1.081       .  S
C229        O243   1.233       .  S
C229        O244   1.268       .  A
C229        H254   1.081   1_554  S
O230        C253   1.268       .  A
O231       Mg245   2.181       .  S
O232       Mg262   2.257   1_554  S
C233        O246   1.269       .  A
C233        O238   1.281       .  A
C233        C952   1.492       .  S
C234        O261   1.277       .  A
C234        C940   1.498       .  S
Mg235       O242   2.115       .  S
Mg235       O243   2.145       .  S
Mg235       O236   2.255       .  S
Mg235       O237   2.320       .  S
Mg235       O264   2.229       .  S
O237        C241   1.276       .  A
O238       Mg245   2.349       .  S
O239        C258   1.265       .  A
O240        C260   1.281       .  A
O240       Mg256   2.349       .  S
O242       Mg256   2.185       .  S
O242        C253   1.235       .  S
O243       Mg262   2.162   1_554  S
O244       Mg256   2.301       .  S
Mg245       O261   2.306       .  S
O246       Mg262   2.238       .  S
H247        C252   1.081   1_554  S
O248       Mg256   2.147       .  S
O248        C251   1.240   1_554  S
H249        C251   1.081       .  S
H250        C253   1.081       .  S
O255       Mg262   2.293       .  S
C258        O263   1.265       .  A
C258        C925   1.476       .  S
O259        C260   1.272       .  A
C260       C1024   1.494       .  S
O265       Mg267   2.170   1_456  S
O265       Mg273   2.132   1_455  S
O265        C300   1.234       .  S
C266        O279   1.236   1_655  S
C266        O303   1.269       .  A
C266        H305   1.081       .  S
Mg267       O296   2.129       .  S
Mg267       O311   2.264   1_554  S
Mg267       O307   2.226       .  S
Mg267       O278   2.291   1_655  S
O268       Mg310   2.129       .  S
O268       Mg293   2.147       .  S
O268        C289   1.241   1_556  S
O269        C300   1.270       .  A
O269       Mg293   2.312       .  S
C270        O272   1.282       .  A
C270        O284   1.272       .  A
C270       C1012   1.497       .  S
O271        C299   1.277       .  A
O271       Mg273   2.328       .  S
O272       Mg304   2.334       .  S
Mg273       O279   2.135   1_655  S
Mg273       O287   2.272       .  S
Mg273       O275   2.266   1_655  S
C274        O312   1.268       .  A
C274        O280   1.262       .  A
C274        C877   1.479       .  S
O275        C282   1.272       .  A
H276        C289   1.081   1_556  S
C277        O291   1.232       .  S
C277        O292   1.267       .  A
C277        H302   1.081   1_554  S
O278        C301   1.269       .  A
O279       Mg293   2.191       .  S
O280       Mg310   2.263   1_554  S
C281        O294   1.267       .  A
C281        O286   1.287       .  A
C281        C889   1.500       .  S
C282        O309   1.282       .  A
C282        C901   1.498       .  S
Mg283       O290   2.147       .  S
Mg283       O291   2.125   1_455  S
Mg283       O284   2.260   1_455  S
Mg283       O285   2.327       .  S
Mg283       O312   2.285       .  S
O285        C289   1.277       .  A
O286       Mg293   2.407       .  S
O287        C306   1.266       .  A
O288        C308   1.287       .  A
O288       Mg304   2.402       .  S
O290       Mg304   2.203   1_455  S
O290        C301   1.236       .  S
O291       Mg310   2.155   1_654  S
O292       Mg304   2.303       .  S
Mg293       O309   2.335       .  S
O294       Mg310   2.211       .  S
H295        C300   1.081   1_554  S
O296       Mg304   2.152       .  S
O296        C299   1.241   1_554  S
H297        C299   1.081   1_554  S
H298        C301   1.081       .  S
O303       Mg310   2.285   1_655  S
C306        O311   1.262       .  A
C306        C865   1.480       .  S
O307        C308   1.268       .  A
C308       C1156   1.501       .  S
O313       Mg315   2.163       .  S
O313       Mg321   2.136       .  S
O313        C348   1.233       .  S
C314        O327   1.235       .  S
C314        O351   1.268       .  A
C314        H353   1.081       .  S
Mg315       O344   2.142       .  S
Mg315       O359   2.264       .  S
Mg315       O355   2.225       .  S
Mg315       O326   2.281       .  S
O316       Mg358   2.137       .  S
O316       Mg341   2.143       .  S
O316        C337   1.239       .  S
O317        C348   1.268       .  A
O317       Mg341   2.303       .  S
C318        O320   1.279       .  A
C318        O332   1.270       .  A
C318        C853   1.499       .  S
O319        C347   1.276       .  A
O319       Mg321   2.322       .  S
O320       Mg352   2.337       .  S
Mg321       O327   2.118       .  S
Mg321       O335   2.237       .  S
Mg321       O323   2.275       .  S
C322        O360   1.263       .  A
C322        O328   1.266       .  A
C322        C793   1.470       .  S
O323        C330   1.273       .  A
H324        C337   1.081       .  S
C325        O339   1.234       .  S
C325        O340   1.268       .  A
C325        H350   1.081       .  S
O326        C349   1.267       .  A
O327       Mg341   2.177       .  S
O328       Mg358   2.264       .  S
C329        O342   1.271       .  A
C329        O334   1.280       .  A
C329        C829   1.491       .  S
C330        O357   1.277       .  A
C330        C817   1.495   1_545  S
Mg331       O338   2.104       .  S
Mg331       O339   2.142       .  S
Mg331       O332   2.256       .  S
Mg331       O333   2.315       .  S
Mg331       O360   2.215       .  S
O333        C337   1.275       .  A
O334       Mg341   2.344       .  S
O335        C354   1.263       .  A
O336        C356   1.281       .  A
O336       Mg352   2.347       .  S
O338       Mg352   2.181       .  S
O338        C349   1.235       .  S
O339       Mg358   2.164       .  S
O340       Mg352   2.302       .  S
Mg341       O357   2.310       .  S
O342       Mg358   2.247       .  S
H343        C348   1.081       .  S
O344       Mg352   2.148       .  S
O344        C347   1.240       .  S
H345        C347   1.081       .  S
H346        C349   1.081       .  S
O351       Mg358   2.288       .  S
C354        O359   1.265       .  A
C354        C805   1.477   1_545  S
O355        C356   1.270       .  A
C356        C841   1.486       .  S
C361        C949   1.479       .  S
C361        C362   1.410       .  A
C361        C366   1.403       .  A
C362        C904   1.486       .  S
C362        C363   1.406       .  A
C363        H368   1.085       .  S
C363        C364   1.409       .  A
C364        C781   1.489       .  S
C364        C365   1.416       .  A
C365        C832   1.486       .  S
C365        C366   1.406       .  A
C366        H367   1.085       .  S
C369        C892   1.496       .  S
C369        C370   1.420       .  A
C369        C374   1.418       .  A
C370        C985   1.500       .  S
C370        C371   1.406       .  A
C371        H376   1.085       .  S
C371        C372   1.412       .  A
C372        C820   1.492       .  S
C372        C373   1.417       .  A
C373        C769   1.503       .  S
C373        C374   1.412       .  A
C374        H375   1.084       .  S
O377       Mg379   2.172       .  S
O377       Mg385   2.131       .  S
O377        C412   1.233       .  S
C378        O391   1.235       .  S
C378        O415   1.268       .  A
C378        H417   1.081       .  S
Mg379       O408   2.128       .  S
Mg379       O423   2.247       .  S
Mg379       O419   2.212       .  S
Mg379       O390   2.288       .  S
O380       Mg422   2.142       .  S
O380       Mg405   2.157       .  S
O380        C401   1.240       .  S
O381        C412   1.269       .  A
O381       Mg405   2.311       .  S
C382        O384   1.277       .  A
C382        O396   1.275       .  A
C382        C745   1.486       .  S
O383        C411   1.279       .  A
O383       Mg385   2.340       .  S
O384       Mg416   2.296       .  S
Mg385       O391   2.145       .  S
Mg385       O399   2.299       .  S
Mg385       O387   2.275       .  S
C386        O424   1.266   1_565  A
C386        O392   1.266   1_565  A
C386        C709   1.468       .  S
O387        C394   1.273       .  A
H388        C401   1.081       .  S
C389        O403   1.233       .  S
C389        O404   1.268       .  A
C389        H414   1.081       .  S
O390        C413   1.268       .  A
O391       Mg405   2.200       .  S
O392       Mg422   2.269       .  S
C393        O406   1.268       .  A
C393        O398   1.288       .  A
C393        C733   1.508   1_545  S
C394        O421   1.284       .  A
C394        C784   1.502   1_655  S
Mg395       O402   2.125       .  S
Mg395       O403   2.137       .  S
Mg395       O396   2.299       .  S
Mg395       O397   2.315       .  S
Mg395       O424   2.235       .  S
O397        C401   1.275       .  A
O398       Mg405   2.418       .  S
O399        C418   1.267       .  A
O400        C420   1.281       .  A
O400       Mg416   2.368       .  S
O402       Mg416   2.169       .  S
O402        C413   1.236       .  S
O403       Mg422   2.164       .  S
O404       Mg416   2.304       .  S
Mg405       O421   2.339       .  S
O406       Mg422   2.224       .  S
H407        C412   1.081       .  S
O408       Mg416   2.145       .  S
O408        C411   1.241       .  S
H409        C411   1.081       .  S
H410        C413   1.081       .  S
O415       Mg422   2.286       .  S
C418        O423   1.257       .  A
C418        C724   1.475   1_655  S
O419        C420   1.266       .  A
C420        C757   1.488       .  S
O425       Mg427   2.189       .  S
O425       Mg433   2.158       .  S
O425        C460   1.236       .  S
C426        O439   1.233       .  S
C426        O463   1.266       .  A
C426        H465   1.081       .  S
Mg427       O456   2.178       .  S
Mg427       O471   2.319       .  S
Mg427       O467   2.277       .  S
Mg427       O438   2.290       .  S
O428       Mg470   2.167       .  S
O428       Mg453   2.172       .  S
O428        C449   1.240       .  S
O429        C460   1.273       .  A
O429       Mg453   2.321       .  S
C430        O432   1.283       .  A
C430        O444   1.270       .  A
C430        C772   1.498       .  S
O431        C459   1.273       .  A
O431       Mg433   2.305       .  S
O432       Mg464   2.369       .  S
Mg433       O439   2.132       .  S
Mg433       O447   2.219       .  S
Mg433       O435   2.266       .  S
C434        O472   1.263       .  A
C434        O440   1.273       .  A
C434        C649   1.472   1_655  S
O435        C442   1.270       .  A
H436        C449   1.081       .  S
C437        O451   1.236       .  S
C437        O452   1.273       .  A
C437        H462   1.081       .  S
O438        C461   1.265       .  A
O439       Mg453   2.163       .  S
O440       Mg470   2.304       .  S
C441        O454   1.276       .  A
C441        O446   1.286       .  A
C441        C697   1.507       .  S
C442        O469   1.282       .  A
C442        C685   1.496       .  S
Mg443       O450   2.131       .  S
Mg443       O451   2.143       .  S
Mg443       O444   2.271       .  S
Mg443       O445   2.314       .  S
Mg443       O472   2.226       .  S
O445        C449   1.275       .  A
O446       Mg453   2.382       .  S
O447        C466   1.262       .  A
O448        C468   1.286       .  A
O448       Mg464   2.376       .  S
O450       Mg464   2.156       .  S
O450        C461   1.231       .  S
O451       Mg470   2.183       .  S
O452       Mg464   2.317       .  S
Mg453       O469   2.360       .  S
O454       Mg470   2.278       .  S
H455        C460   1.081       .  S
O456       Mg464   2.180       .  S
O456        C459   1.238       .  S
H457        C459   1.081       .  S
H458        C461   1.081       .  S
O463       Mg470   2.288       .  S
C466        O471   1.276       .  A
C466        C661   1.490       .  S
O467        C468   1.277       .  A
C468        C673   1.499       .  S
C473       C1000   1.495       .  S
C473        C474   1.413       .  A
C473        C478   1.411       .  A
C474        C937   1.491       .  S
C474        C475   1.407       .  A
C475        H480   1.085       .  S
C475        C476   1.409       .  A
C476        C676   1.496       .  S
C476        C477   1.424       .  A
C477        C736   1.503       .  S
C477        C478   1.417       .  A
C478        H479   1.084       .  S
C481       C1120   1.489       .  S
C481        C482   1.417       .  A
C481        C486   1.410       .  A
C482       C1252   1.496       .  S
C482        C483   1.406   1_455  A
C483        H488   1.084       .  S
C483        C484   1.411       .  A
C484        C760   1.489       .  S
C484        C485   1.422       .  A
C485        C700   1.504       .  S
C485        C486   1.409   1_655  A
C486        H487   1.084       .  S
C489       C1072   1.490       .  S
C489        C490   1.418       .  A
C489        C494   1.415       .  A
C490       C1264   1.503       .  S
C490        C491   1.410       .  A
C491        H496   1.084       .  S
C491        C492   1.413       .  A
C492        C856   1.492       .  S
C492        C493   1.415       .  A
C493        C688   1.499       .  S
C493        C494   1.409       .  A
C494        H495   1.084       .  S
C497       C1057   1.480       .  S
C497        C498   1.413       .  A
C497        C502   1.404   1_565  A
C498       C1132   1.487       .  S
C498        C499   1.405       .  A
C499        H504   1.084       .  S
C499        C500   1.406   1_565  A
C500        C844   1.483       .  S
C500        C501   1.412       .  A
C501        C748   1.484       .  S
C501        C502   1.401       .  A
C502        H503   1.085       .  S
O505       Mg507   2.117   1_455  S
O505       Mg513   2.128   1_554  S
O505        C540   1.236       .  S
C506        O519   1.231       .  S
C506        O543   1.264       .  A
C506        H545   1.081       .  S
Mg507       O536   2.186   1_554  S
Mg507       O551   2.301   1_554  S
Mg507       O547   2.205   1_554  S
Mg507       O518   2.290       .  S
O508       Mg550   2.181   1_554  S
O508       Mg533   2.166       .  S
O508        C529   1.238       .  S
O509        C540   1.272       .  A
O509       Mg533   2.312   1_565  S
C510        O512   1.276       .  A
C510        O524   1.265   1_565  A
C510        C961   1.486       .  S
O511        C539   1.274   1_455  A
O511       Mg513   2.308       .  S
O512       Mg544   2.331       .  S
Mg513       O519   2.113   1_565  S
Mg513       O527   2.220       .  S
Mg513       O515   2.261   1_556  S
C514        O552   1.265       .  A
C514        O520   1.272   1_655  A
C514        C868   1.472   1_554  S
O515        C522   1.263   1_565  A
H516        C529   1.081       .  S
C517        O531   1.236       .  S
C517        O532   1.271       .  A
C517        H542   1.081       .  S
O518        C541   1.265       .  A
O519       Mg533   2.135   1_556  S
O520       Mg550   2.288   1_554  S
C521        O534   1.268   1_554  A
C521        O526   1.275       .  A
C521        C913   1.473       .  S
C522        O549   1.275       .  A
C522        C973   1.486   1_545  S
Mg523       O530   2.130   1_545  S
Mg523       O531   2.132   1_554  S
Mg523       O524   2.259   1_554  S
Mg523       O525   2.305       .  S
Mg523       O552   2.238       .  S
O525        C529   1.273   1_655  A
O526       Mg533   2.291       .  S
O527        C546   1.261       .  A
O528        C548   1.278       .  A
O528       Mg544   2.307       .  S
O530       Mg544   2.142   1_554  S
O530        C541   1.231       .  S
O531       Mg550   2.119   1_655  S
O532       Mg544   2.312   1_545  S
Mg533       O549   2.329       .  S
O534       Mg550   2.203       .  S
H535        C540   1.081       .  S
O536       Mg544   2.175       .  S
O536        C539   1.240       .  S
H537        C539   1.081       .  S
H538        C541   1.081       .  S
O543       Mg550   2.285       .  S
C546        O551   1.272   1_455  A
C546        C880   1.475       .  S
O547        C548   1.267       .  A
C548        C928   1.471       .  S
O553       Mg555   2.148       .  S
O553       Mg561   2.170       .  S
O553        C588   1.235       .  S
C554        O567   1.238       .  S
C554        O591   1.274       .  A
C554        H593   1.081       .  S
Mg555       O584   2.127       .  S
Mg555       O599   2.243       .  S
Mg555       O595   2.279       .  S
Mg555       O566   2.313       .  S
O556       Mg598   2.122       .  S
O556       Mg581   2.126       .  S
O556        C577   1.232       .  S
O557        C588   1.270       .  A
O557       Mg581   2.300       .  S
C558        O560   1.264       .  A
C558        O572   1.278       .  A
C558       C1240   1.480       .  S
O559        C587   1.267       .  A
O559       Mg561   2.303       .  S
O560       Mg592   2.203       .  S
Mg561       O567   2.143       .  S
Mg561       O575   2.279       .  S
Mg561       O563   2.338       .  S
C562        O600   1.271       .  A
C562        O568   1.270       .  A
C562       C1033   1.456       .  S
O563        C570   1.278       .  A
H564        C577   1.081       .  S
C565        O579   1.236       .  S
C565        O580   1.269       .  A
C565        H590   1.081       .  S
O566        C589   1.273       .  A
O567       Mg581   2.134       .  S
O568       Mg598   2.273       .  S
C569        O582   1.267       .  A
C569        O574   1.263       .  A
C569       C1093   1.469       .  S
C570        O597   1.261       .  A
C570       C1225   1.474       .  S
Mg571       O578   2.116       .  S
Mg571       O579   2.165       .  S
Mg571       O572   2.337       .  S
Mg571       O573   2.302       .  S
Mg571       O600   2.242       .  S
O573        C577   1.267       .  A
O574       Mg581   2.277       .  S
O575        C594   1.275       .  A
O576        C596   1.260       .  A
O576       Mg592   2.253       .  S
O578       Mg592   2.129       .  S
O578        C589   1.238       .  S
O579       Mg598   2.139       .  S
O580       Mg592   2.294       .  S
Mg581       O597   2.176       .  S
O582       Mg598   2.264       .  S
H583        C588   1.081       .  S
O584       Mg592   2.136       .  S
O584        C587   1.232       .  S
H585        C587   1.081       .  S
H586        C589   1.081       .  S
O591       Mg598   2.320       .  S
C594        O599   1.267       .  A
C594       C1045   1.463       .  S
O595        C596   1.265       .  A
C596       C1108   1.474       .  S
O601       Mg603   2.108       .  S
O601       Mg609   2.176       .  S
O601        C636   1.231       .  S
C602        O615   1.239       .  S
C602        O639   1.273       .  A
C602        H641   1.081       .  S
Mg603       O632   2.135       .  S
Mg603       O647   2.232       .  S
Mg603       O643   2.226       .  S
Mg603       O614   2.305       .  S
O604       Mg646   2.127       .  S
O604       Mg629   2.121       .  S
O604        C625   1.236       .  S
O605        C636   1.264       .  A
O605       Mg629   2.278       .  S
C606        O608   1.267       .  A
C606        O620   1.275       .  A
C606        C796   1.462       .  S
O607        C635   1.266       .  A
O607       Mg609   2.289       .  S
O608       Mg640   2.204       .  S
Mg609       O615   2.147       .  S
Mg609       O623   2.306       .  S
Mg609       O611   2.305       .  S
C610        O648   1.274       .  A
C610        O616   1.261       .  A
C610        C664   1.477       .  S
O611        C618   1.277       .  A
H612        C625   1.081       .  S
C613        O627   1.232       .  S
C613        O628   1.266       .  A
C613        H638   1.081       .  S
O614        C637   1.272       .  A
O615       Mg629   2.165       .  S
O616       Mg646   2.249       .  S
C617        O630   1.262       .  A
C617        O622   1.268       .  A
C617        C712   1.462       .  S
C618        O645   1.266       .  A
C618        C808   1.467       .  S
Mg619       O626   2.163       .  S
Mg619       O627   2.143       .  S
Mg619       O620   2.293       .  S
Mg619       O621   2.316       .  S
Mg619       O648   2.333       .  S
O621        C625   1.272       .  A
O622       Mg629   2.271       .  S
O623        C642   1.276       .  A
O624        C644   1.274       .  A
O624       Mg640   2.301       .  S
O626       Mg640   2.175       .  S
O626        C637   1.237       .  S
O627       Mg646   2.126       .  S
O628       Mg640   2.293       .  S
Mg629       O645   2.207       .  S
O630       Mg646   2.223       .  S
H631        C636   1.081       .  S
O632       Mg640   2.119       .  S
O632        C635   1.234       .  S
H633        C635   1.081       .  S
H634        C637   1.081       .  S
O639       Mg646   2.304       .  S
C642        O647   1.267       .  A
C642        C652   1.486       .  S
O643        C644   1.264       .  A
C644        C721   1.481       .  S
C649        C650   1.409       .  A
C649        C654   1.400       .  A
C650        H655   1.084       .  S
C650        C651   1.402       .  A
C651        C652   1.409       .  A
C651        O656   1.371       .  S
C652        C653   1.413       .  A
C653        H657   1.084       .  S
C653        C654   1.395       .  A
C654        O658   1.373   1_455  S
O656        H660   0.991       .  S
O658        H659   0.992       .  S
C661        C662   1.401       .  A
C661        C666   1.422       .  A
C662        H667   1.084       .  S
C662        C663   1.400       .  A
C663        C664   1.411       .  A
C663        O668   1.372       .  S
C664        C665   1.398       .  A
C665        H669   1.084       .  S
C665        C666   1.404       .  A
C666        O670   1.371       .  S
O668        H672   0.991       .  S
O670        H671   0.992       .  S
C673        C674   1.405       .  A
C673        C678   1.418       .  A
C674        H679   1.083       .  S
C674        C675   1.410       .  A
C675        C676   1.413       .  A
C675        O680   1.372       .  S
C676        C677   1.402       .  A
C677        H681   1.084       .  S
C677        C678   1.406       .  A
C678        O682   1.372       .  S
O680        H684   0.992       .  S
O682        H683   0.992       .  S
C685        C686   1.410       .  A
C685        C690   1.411       .  A
C686        H691   1.084       .  S
C686        C687   1.402       .  A
C687        C688   1.407       .  A
C687        O692   1.372       .  S
C688        C689   1.409       .  A
C689        H693   1.083       .  S
C689        C690   1.413       .  A
C690        O694   1.371       .  S
O692        H696   0.992       .  S
O694        H695   0.991       .  S
C697        C698   1.411       .  A
C697        C702   1.417       .  A
C698        H703   1.083       .  S
C698        C699   1.415       .  A
C699        C700   1.412       .  A
C699        O704   1.372       .  S
C700        C701   1.404       .  A
C701        H705   1.084   1_655  S
C701        C702   1.403       .  A
C702        O706   1.372       .  S
O704        H708   0.992       .  S
O706        H707   0.992   1_655  S
C709        C710   1.406       .  A
C709        C714   1.409       .  A
C710        H715   1.084       .  S
C710        C711   1.400       .  A
C711        C712   1.406       .  A
C711        O716   1.372       .  S
C712        C713   1.400       .  A
C713        H717   1.084       .  S
C713        C714   1.390       .  A
C714        O718   1.372       .  S
O716        H720   0.992       .  S
O718        H719   0.992       .  S
C721        C722   1.404       .  A
C721        C726   1.414       .  A
C722        H727   1.084       .  S
C722        C723   1.397       .  A
C723        C724   1.407       .  A
C723        O728   1.372       .  S
C724        C725   1.404       .  A
C725        H729   1.083   1_455  S
C725        C726   1.402       .  A
C726        O730   1.372       .  S
O728        H732   0.991       .  S
O730        H731   0.992       .  S
C733        C734   1.412       .  A
C733        C738   1.415       .  A
C734        H739   1.083       .  S
C734        C735   1.399       .  A
C735        C736   1.408       .  A
C735        O740   1.373       .  S
C736        C737   1.411       .  A
C737        H741   1.083       .  S
C737        C738   1.418       .  A
C738        O742   1.370   1_565  S
O740        H744   0.992       .  S
O742        H743   0.992       .  S
C745        C746   1.408       .  A
C745        C750   1.411       .  A
C746        H751   1.084       .  S
C746        C747   1.401       .  A
C747        C748   1.405       .  A
C747        O752   1.372       .  S
C748        C749   1.404       .  A
C749        H753   1.084       .  S
C749        C750   1.404       .  A
C750        O754   1.371       .  S
O752        H756   0.992       .  S
O754        H755   0.992       .  S
C757        C758   1.404       .  A
C757        C762   1.416       .  A
C758        H763   1.083       .  S
C758        C759   1.409       .  A
C759        C760   1.415       .  A
C759        O764   1.372       .  S
C760        C761   1.398       .  A
C761        H765   1.083       .  S
C761        C762   1.395       .  A
C762        O766   1.371       .  S
O764        H768   0.992       .  S
O766        H767   0.992       .  S
C769        C770   1.410       .  A
C769        C774   1.408       .  A
C770        H775   1.083       .  S
C770        C771   1.414   1_455  A
C771        C772   1.411       .  A
C771        O776   1.371       .  S
C772        C773   1.410   1_655  A
C773        H777   1.084       .  S
C773        C774   1.406       .  A
C774        O778   1.372       .  S
O776        H780   0.992       .  S
O778        H779   0.992       .  S
C781        C782   1.396       .  A
C781        C786   1.410       .  A
C782        H787   1.084       .  S
C782        C783   1.397       .  A
C783        C784   1.422       .  A
C783        O788   1.371       .  S
C784        C785   1.409       .  A
C785        H789   1.083   1_455  S
C785        C786   1.411       .  A
C786        O790   1.370       .  S
O788        H792   0.992       .  S
O790        H791   0.992       .  S
C793        C794   1.407       .  A
C793        C798   1.410       .  A
C794        H799   1.083       .  S
C794        C795   1.392       .  A
C795        C796   1.405       .  A
C795        O800   1.372       .  S
C796        C797   1.402       .  A
C797        H801   1.084       .  S
C797        C798   1.392       .  A
C798        O802   1.372       .  S
O800        H804   0.992       .  S
O802        H803   0.992       .  S
C805        C806   1.406       .  A
C805        C810   1.414       .  A
C806        H811   1.084   1_565  S
C806        C807   1.396       .  A
C807        C808   1.408       .  A
C807        O812   1.373       .  S
C808        C809   1.400       .  A
C809        H813   1.084       .  S
C809        C810   1.394       .  A
C810        O814   1.371       .  S
O812        H816   0.992       .  S
O814        H815   0.992       .  S
C817        C818   1.409       .  A
C817        C822   1.413       .  A
C818        H823   1.083       .  S
C818        C819   1.393       .  A
C819        C820   1.407       .  A
C819        O824   1.373       .  S
C820        C821   1.408       .  A
C821        H825   1.083       .  S
C821        C822   1.410       .  A
C822        O826   1.371   1_565  S
O824        H828   0.992       .  S
O826        H827   0.992       .  S
C829        C830   1.409       .  A
C829        C834   1.411       .  A
C830        H835   1.083       .  S
C830        C831   1.399       .  A
C831        C832   1.405       .  A
C831        O836   1.372       .  S
C832        C833   1.406       .  A
C833        H837   1.084       .  S
C833        C834   1.406       .  A
C834        O838   1.371       .  S
O836        H840   0.992       .  S
O838        H839   0.992       .  S
C841        C842   1.408       .  A
C841        C846   1.411       .  A
C842        H847   1.084       .  S
C842        C843   1.395       .  A
C843        C844   1.405       .  A
C843        O848   1.373   1_545  S
C844        C845   1.405       .  A
C845        H849   1.083       .  S
C845        C846   1.404       .  A
C846        O850   1.371       .  S
O848        H852   0.992       .  S
O850        H851   0.992       .  S
C853        C854   1.412       .  A
C853        C858   1.413       .  A
C854        H859   1.083       .  S
C854        C855   1.394       .  A
C855        C856   1.403       .  A
C855        O860   1.373       .  S
C856        C857   1.410       .  A
C857        H861   1.083       .  S
C857        C858   1.413       .  A
C858        O862   1.371       .  S
O860        H864   0.991       .  S
O862        H863   0.992       .  S
C865        C866   1.409   1_556  A
C865        C870   1.410       .  A
C866        H871   1.083       .  S
C866        C867   1.402       .  A
C867        C868   1.407   1_554  A
C867        O872   1.372       .  S
C868        C869   1.402   1_655  A
C869        H873   1.084       .  S
C869        C870   1.395   1_455  A
C870        O874   1.371   1_655  S
O872        H876   0.992       .  S
O874        H875   0.992       .  S
C877        C878   1.407   1_554  A
C877        C882   1.409       .  A
C878        H883   1.084       .  S
C878        C879   1.403       .  A
C879        C880   1.411       .  A
C879        O884   1.372       .  S
C880        C881   1.401   1_456  A
C881        H885   1.084       .  S
C881        C882   1.396   1_655  A
C882        O886   1.371   1_455  S
O884        H888   0.992       .  S
O886        H887   0.992       .  S
C889        C890   1.412       .  A
C889        C894   1.412       .  A
C890        H895   1.084       .  S
C890        C891   1.398       .  A
C891        C892   1.405       .  A
C891        O896   1.372       .  S
C892        C893   1.410       .  A
C893        H897   1.083       .  S
C893        C894   1.414       .  A
C894        O898   1.370       .  S
O896        H900   0.992       .  S
O898        H899   0.992       .  S
C901        C902   1.412       .  A
C901        C906   1.413       .  A
C902        H907   1.081       .  S
C902        C903   1.396       .  A
C903        C904   1.400       .  A
C903        O908   1.372       .  S
C904        C905   1.407       .  A
C905        H909   1.083       .  S
C905        C906   1.412       .  A
C906        O910   1.371       .  S
O908        H912   0.992       .  S
O910        H911   0.992       .  S
C913        C914   1.409       .  A
C913        C918   1.410       .  A
C914        H919   1.083   1_554  S
C914        C915   1.393       .  A
C915        C916   1.403       .  A
C915        O920   1.372       .  S
C916        C917   1.403       .  A
C917        H921   1.083       .  S
C917        C918   1.392       .  A
C918        O922   1.372       .  S
O920        H924   0.992       .  S
O922        H923   0.992       .  S
C925        C926   1.405       .  A
C925        C930   1.413       .  A
C926        H931   1.083   1_556  S
C926        C927   1.396   1_556  A
C927        C928   1.410   1_554  A
C927        O932   1.372       .  S
C928        C929   1.401       .  A
C929        H933   1.084       .  S
C929        C930   1.394       .  A
C930        O934   1.371       .  S
O932        H936   0.992       .  S
O934        H935   0.992       .  S
C937        C938   1.407       .  A
C937        C942   1.405       .  A
C938        H943   1.083       .  S
C938        C939   1.412       .  A
C939        C940   1.415       .  A
C939        O944   1.371       .  S
C940        C941   1.409       .  A
C941        H945   1.082       .  S
C941        C942   1.396       .  A
C942        O946   1.373       .  S
O944        H948   0.992       .  S
O946        H947   0.992       .  S
C949        C950   1.398       .  A
C949        C954   1.406       .  A
C950        H955   1.084       .  S
C950        C951   1.400       .  A
C951        C952   1.419       .  A
C951        O956   1.372       .  S
C952        C953   1.407       .  A
C953        H957   1.083       .  S
C953        C954   1.403       .  A
C954        O958   1.371       .  S
O956        H960   0.992       .  S
O958        H959   0.992       .  S
C961        C962   1.411   1_565  A
C961        C966   1.406       .  A
C962        H967   1.084       .  S
C962        C963   1.398       .  A
C963        C964   1.405       .  A
C963        O968   1.372       .  S
C964        C965   1.410   1_545  A
C965        H969   1.081       .  S
C965        C966   1.405       .  A
C966        O970   1.372       .  S
O968        H972   0.992       .  S
O970        H971   0.992       .  S
C973        C974   1.402   1_565  A
C973        C978   1.418       .  A
C974        H979   1.084       .  S
C974        C975   1.405       .  A
C975        C976   1.416   1_545  A
C975        O980   1.370       .  S
C976        C977   1.394       .  A
C977        H981   1.084       .  S
C977        C978   1.394       .  A
C978        O982   1.369       .  S
O980        H984   0.992       .  S
O982        H983   0.992   1_554  S
C985        C986   1.402       .  A
C985        C990   1.413       .  A
C986        H991   1.084       .  S
C986        C987   1.408       .  A
C987        C988   1.419       .  A
C987        O992   1.372       .  S
C988        C989   1.409       .  A
C989        H993   1.083       .  S
C989        C990   1.412       .  A
C990        O994   1.371       .  S
O992        H996   0.992       .  S
O994        H995   0.992       .  S
C997        C998   1.405       .  A
C997       C1002   1.414       .  A
C998       H1003   1.083       .  S
C998        C999   1.410       .  A
C999       C1000   1.412       .  A
C999       O1004   1.372       .  S
C1000      C1001   1.401       .  A
C1001      H1005   1.084       .  S
C1001      C1002   1.402       .  A
C1002      O1006   1.372       .  S
O1004      H1008   0.992       .  S
O1006      H1007   0.990       .  S
C1009      C1010   1.408       .  A
C1009      C1014   1.401       .  A
C1010      H1015   1.083       .  S
C1010      C1011   1.412       .  A
C1011      C1012   1.412       .  A
C1011      O1016   1.371       .  S
C1012      C1013   1.411       .  A
C1013      H1017   1.080       .  S
C1013      C1014   1.394       .  A
C1014      O1018   1.372       .  S
O1016      H1020   0.992       .  S
O1018      H1019   0.992       .  S
C1021      C1022   1.400       .  A
C1021      C1026   1.410       .  A
C1022      H1027   1.083       .  S
C1022      C1023   1.400       .  A
C1023      C1024   1.416       .  A
C1023      O1028   1.371       .  S
C1024      C1025   1.408       .  A
C1025      H1029   1.083       .  S
C1025      C1026   1.407       .  A
C1026      O1030   1.371       .  S
O1028      H1032   0.992       .  S
O1030      H1031   0.992       .  S
C1033      C1034   1.400       .  A
C1033      C1038   1.401       .  A
C1034      H1039   1.084       .  S
C1034      C1035   1.397       .  A
C1035      C1036   1.414       .  A
C1035      O1040   1.372       .  S
C1036      C1037   1.407       .  A
C1037      H1041   1.083       .  S
C1037      C1038   1.392       .  A
C1038      O1042   1.372       .  S
O1040      H1044   0.991   1_545  S
O1042      H1043   0.992       .  S
C1045      C1046   1.405       .  A
C1045      C1050   1.402       .  A
C1046      H1051   1.084       .  S
C1046      C1047   1.395       .  A
C1047      C1048   1.406       .  A
C1047      O1052   1.371       .  S
C1048      C1049   1.409       .  A
C1049      H1053   1.082       .  S
C1049      C1050   1.395       .  A
C1050      O1054   1.372       .  S
O1052      H1056   0.992       .  S
O1054      H1055   0.992       .  S
C1057      C1058   1.403       .  A
C1057      C1062   1.404       .  A
C1058      H1063   1.084       .  S
C1058      C1059   1.405       .  A
C1059      C1060   1.414       .  A
C1059      O1064   1.371       .  S
C1060      C1061   1.409       .  A
C1061      H1065   1.083       .  S
C1061      C1062   1.395       .  A
C1062      O1066   1.373   1_565  S
O1064      H1068   0.992       .  S
O1066      H1067   0.992       .  S
C1069      C1070   1.410       .  A
C1069      C1074   1.414       .  A
C1070      H1075   1.082       .  S
C1070      C1071   1.395       .  A
C1071      C1072   1.403       .  A
C1071      O1076   1.372       .  S
C1072      C1073   1.409       .  A
C1073      H1077   1.083       .  S
C1073      C1074   1.413       .  A
C1074      O1078   1.371       .  S
O1076      H1080   0.991       .  S
O1078      H1079   0.992       .  S
C1081      C1082   1.409       .  A
C1081      C1086   1.418       .  A
C1082      H1087   1.083       .  S
C1082      C1083   1.407       .  A
C1083      C1084   1.407       .  A
C1083      O1088   1.371       .  S
C1084      C1085   1.397       .  A
C1085      H1089   1.084       .  S
C1085      C1086   1.396       .  A
C1086      O1090   1.372       .  S
O1088      H1092   0.992       .  S
O1090      H1091   0.992       .  S
C1093      C1094   1.404       .  A
C1093      C1098   1.406       .  A
C1094      H1099   1.084       .  S
C1094      C1095   1.403       .  A
C1095      C1096   1.411       .  A
C1095      O1100   1.372       .  S
C1096      C1097   1.403       .  A
C1097      H1101   1.084       .  S
C1097      C1098   1.394       .  A
C1098      O1102   1.372       .  S
O1100      H1104   0.992       .  S
O1102      H1103   0.992       .  S
C1105      C1106   1.403       .  A
C1105      C1110   1.406       .  A
C1106      H1111   1.084       .  S
C1106      C1107   1.398       .  A
C1107      C1108   1.410       .  A
C1107      O1112   1.372       .  S
C1108      C1109   1.405       .  A
C1109      H1113   1.083       .  S
C1109      C1110   1.397       .  A
C1110      O1114   1.372   1_655  S
O1112      H1116   0.992       .  S
O1114      H1115   0.992       .  S
C1117      C1118   1.404       .  A
C1117      C1122   1.414       .  A
C1118      H1123   1.083       .  S
C1118      C1119   1.406       .  A
C1119      C1120   1.414       .  A
C1119      O1124   1.371       .  S
C1120      C1121   1.399       .  A
C1121      H1125   1.083       .  S
C1121      C1122   1.397       .  A
C1122      O1126   1.372       .  S
O1124      H1128   0.992       .  S
O1126      H1127   0.992       .  S
C1129      C1130   1.407       .  A
C1129      C1134   1.408       .  A
C1130      H1135   1.084       .  S
C1130      C1131   1.400       .  A
C1131      C1132   1.407       .  A
C1131      O1136   1.372       .  S
C1132      C1133   1.406       .  A
C1133      H1137   1.084       .  S
C1133      C1134   1.403       .  A
C1134      O1138   1.371       .  S
O1136      H1140   0.992   1_565  S
O1138      H1139   0.991       .  S
C1141      C1142   1.406       .  A
C1141      C1146   1.414       .  A
C1142      H1147   1.083   1_655  S
C1142      C1143   1.408       .  A
C1143      C1144   1.411       .  A
C1143      O1148   1.372       .  S
C1144      C1145   1.402       .  A
C1145      H1149   1.083       .  S
C1145      C1146   1.403       .  A
C1146      O1150   1.372       .  S
O1148      H1152   0.992       .  S
O1150      H1151   0.992       .  S
C1153      C1154   1.411       .  A
C1153      C1158   1.405       .  A
C1154      H1159   1.083       .  S
C1154      C1155   1.413       .  A
C1155      C1156   1.410       .  A
C1155      O1160   1.371       .  S
C1156      C1157   1.414       .  A
C1157      H1161   1.084       .  S
C1157      C1158   1.403       .  A
C1158      O1162   1.372       .  S
O1160      H1164   0.992       .  S
O1162      H1163   0.992       .  S
C1165      C1166   1.412       .  A
C1165      C1170   1.416       .  A
C1166      H1171   1.083       .  S
C1166      C1167   1.415       .  A
C1167      C1168   1.412       .  A
C1167      O1172   1.371       .  S
C1168      C1169   1.406       .  A
C1169      H1173   1.084       .  S
C1169      C1170   1.404       .  A
C1170      O1174   1.372       .  S
O1172      H1176   0.992       .  S
O1174      H1175   0.992       .  S
C1177      C1178   1.413       .  A
C1177      C1182   1.414       .  A
C1178      H1183   1.083       .  S
C1178      C1179   1.395       .  A
C1179      C1180   1.402       .  A
C1179      O1184   1.373       .  S
C1180      C1181   1.408       .  A
C1181      H1185   1.083       .  S
C1181      C1182   1.412       .  A
C1182      O1186   1.371   1_545  S
O1184      H1188   0.991       .  S
O1186      H1187   0.992       .  S
C1189      C1190   1.397       .  A
C1189      C1194   1.410       .  A
C1190      H1195   1.084       .  S
C1190      C1191   1.393       .  A
C1191      C1192   1.420       .  A
C1191      O1196   1.372       .  S
C1192      C1193   1.408       .  A
C1193      H1197   1.083       .  S
C1193      C1194   1.411       .  A
C1194      O1198   1.372       .  S
O1196      H1200   0.992       .  S
O1198      H1199   0.992       .  S
C1201      C1202   1.403       .  A
C1201      C1206   1.411       .  A
C1202      H1207   1.083       .  S
C1202      C1203   1.408       .  A
C1203      C1204   1.417       .  A
C1203      O1208   1.371       .  S
C1204      C1205   1.406       .  A
C1205      H1209   1.082       .  S
C1205      C1206   1.405       .  A
C1206      O1210   1.372       .  S
O1208      H1212   0.991       .  S
O1210      H1211   0.990       .  S
C1213      C1214   1.407       .  A
C1213      C1218   1.401       .  A
C1214      H1219   1.083       .  S
C1214      C1215   1.412       .  A
C1215      C1216   1.413       .  A
C1215      O1220   1.371   1_545  S
C1216      C1217   1.413       .  A
C1217      H1221   1.083       .  S
C1217      C1218   1.393       .  A
C1218      O1222   1.373       .  S
O1220      H1224   0.992       .  S
O1222      H1223   0.992       .  S
C1225      C1226   1.411       .  A
C1225      C1230   1.402       .  A
C1226      H1231   1.084       .  S
C1226      C1227   1.395       .  A
C1227      C1228   1.401       .  A
C1227      O1232   1.372       .  S
C1228      C1229   1.410       .  A
C1229      H1233   1.084       .  S
C1229      C1230   1.399       .  A
C1230      O1234   1.372       .  S
O1232      H1236   0.992       .  S
O1234      H1235   0.992       .  S
C1237      C1238   1.397       .  A
C1237      C1242   1.413       .  A
C1238      H1243   1.084   1_655  S
C1238      C1239   1.395       .  A
C1239      C1240   1.416       .  A
C1239      O1244   1.371       .  S
C1240      C1241   1.401       .  A
C1241      H1245   1.084       .  S
C1241      C1242   1.402       .  A
C1242      O1246   1.371       .  S
O1244      H1248   0.992       .  S
O1246      H1247   0.992       .  S
C1249      C1250   1.411       .  A
C1249      C1254   1.421       .  A
C1250      H1255   1.083       .  S
C1250      C1251   1.413       .  A
C1251      C1252   1.411       .  A
C1251      O1256   1.371       .  S
C1252      C1253   1.399       .  A
C1253      H1257   1.084   1_455  S
C1253      C1254   1.400       .  A
C1254      O1258   1.372       .  S
O1256      H1260   0.992       .  S
O1258      H1259   0.992       .  S
C1261      C1262   1.405       .  A
C1261      C1266   1.411       .  A
C1262      H1267   1.083       .  S
C1262      C1263   1.410       .  A
C1263      C1264   1.415       .  A
C1263      O1268   1.372       .  S
C1264      C1265   1.405       .  A
C1265      H1269   1.082       .  S
C1265      C1266   1.405       .  A
C1266      O1270   1.372       .  S
O1268      H1272   0.992       .  S
O1270      H1271   0.992       .  S
C1273      C1274   1.411   1_455  A
C1273      C1278   1.411       .  A
C1274      H1279   1.083       .  S
C1274      C1275   1.403       .  A
C1275      C1276   1.404       .  A
C1275      O1280   1.373       .  S
C1276      C1277   1.408       .  A
C1277      H1281   1.083       .  S
C1277      C1278   1.413   1_655  A
C1278      O1282   1.371       .  S
O1280      H1284   0.992       .  S
O1282      H1283   0.992       .  S
C1285      C1286   1.409       .  A
C1285      C1290   1.418       .  A
C1286      H1291   1.083       .  S
C1286      C1287   1.413       .  A
C1287      C1288   1.412       .  A
C1287      O1292   1.371       .  S
C1288      C1289   1.403       .  A
C1289      H1293   1.084       .  S
C1289      C1290   1.409       .  A
C1290      O1294   1.371       .  S
O1292      H1296   0.992       .  S
O1294      H1295   0.992       .  S
