geometry optimzed in LAMMPS
_audit_creation_date              2020-11-30 
_audit_creation_method            'lammps2cif' 
_symmetry_space_group_name_H-M    'P1' 
_symmetry_Int_Tables_number       1 
_symmetry_cell_setting            triclinic 
loop_ 
_symmetry_equiv_pos_as_xyz 
  x,y,z 
_cell_length_a                    32.96258702 
_cell_length_b                    33.24971804302609 
_cell_length_c                    62.54168020249133 
_cell_angle_alpha                 90.1151222534497 
_cell_angle_beta                  89.5681937665756 
_cell_angle_gamma                 120.44186040164166 
loop_ 
_atom_site_label 
_atom_site_type_symbol 
_atom_site_fract_x 
_atom_site_fract_y 
_atom_site_fract_z 
_atom_site_charge 
O1          O  0.08911444  0.30752116  0.32384769    -0.88600
C2          C  0.20140403  0.36940216  0.28290813     0.87400
Mg3        Mg  0.08225092  0.34051553  0.35224457     1.58100
O4          O  0.19574452  0.28090733  0.31627005    -0.88300
O5          O  0.08540070  0.24271976  0.31414161    -0.75600
C6          C  0.28846908  0.42300509  0.40106465     0.92500
O7          O  0.15151869  0.41615963  0.31364112    -0.75500
O8          O  0.25713088  0.43479470  0.40025294    -0.83000
Mg9        Mg  0.10650773  0.34788185  0.29489370     1.58000
C10         C  0.32236318  0.31408609  0.34731017     0.92400
O11         O  0.06308531  0.28773823  0.27274133    -0.81200
H12         H  0.16405584  0.21455631  0.32612246    -0.06600
C13         C  0.27898906  0.41450416  0.33885575     0.87400
O14         O  0.10655894  0.30062740  0.37336537    -0.75700
O15         O  0.16462015  0.33623593  0.28999050    -0.88500
O16         O  0.30283325  0.30606580  0.32908853    -0.81300
C17         C  0.24681818  0.27898820  0.26665976     0.92500
C18         C  0.06089034  0.25463658  0.26170526     0.92400
Mg19       Mg  0.24123935  0.33063405  0.36795978     1.58000
O20         O  0.28620684  0.39086391  0.38931716    -0.81200
O21         O  0.19625232  0.26212140  0.34973135    -0.75500
O22         O  0.20345308  0.26778900  0.26610563    -0.81300
O23         O  0.04067949  0.35340037  0.29980921    -0.83000
O24         O  0.14526942  0.40775627  0.39784263    -0.81300
C25         C  0.18490865  0.25107117  0.33033957     0.86800
O26         O  0.18334601  0.34196111  0.37296614    -0.88500
O27         O  0.25870109  0.37151828  0.33905532    -0.88600
O28         O  0.26321420  0.43631502  0.34942167    -0.75600
Mg29       Mg  0.14655909  0.26276654  0.29056642     1.58000
O30         O  0.27367381  0.30424332  0.28152117    -0.83000
H31         H  0.03767174  0.24524977  0.33392535    -0.06700
O32         O  0.15303155  0.39797973  0.34717523    -0.88300
H33         H  0.18491958  0.46412722  0.33700445    -0.06600
H34         H  0.14797439  0.28442601  0.39082154    -0.06700
C35         C  0.16375693  0.42755648  0.33296438     0.86800
C36         C  0.06908103  0.26456792  0.32427110     0.87400
C37         C  0.14635407  0.30851171  0.37975814     0.87400
H38         H  0.31024570  0.43390193  0.32911388    -0.06700
O39         O  0.24128542  0.37764209  0.28930873    -0.75800
Mg40       Mg  0.20208644  0.41528180  0.37315052     1.58000
H41         H  0.19952922  0.39292382  0.27158265    -0.06700
C42         C  0.02534163  0.36439820  0.31619223     0.92400
O43         O  0.07516816  0.37443891  0.38227316    -0.83000
C44         C  0.10216469  0.39724709  0.39764307     0.92500
O45         O  0.09144140  0.24214038  0.26388135    -0.83000
Mg46       Mg  0.26623990  0.33889173  0.31082922     1.58200
O47         O  0.04791969  0.37567805  0.33373313    -0.81300
O48         O  0.30567544  0.32413258  0.36344006    -0.83000
C49         C  0.29835688  0.10179526  0.20520500    -0.11100
C50         C  0.28552950  0.13091534  0.21587413    -0.05000
C51         C  0.30189358  0.17690599  0.20918391    -0.11100
C52         C  0.33187534  0.19456018  0.19107461     0.09900
C53         C  0.34461346  0.16541289  0.17982142    -0.02900
C54         C  0.32778228  0.11890031  0.18681944     0.09700
C55         C  0.34129066  0.09097964  0.17540586    -0.12900
C56         C  0.37176408  0.10870105  0.15786599    -0.12900
C57         C  0.38844217  0.15442825  0.15059457     0.09700
C58         C  0.37475629  0.18307445  0.16163820    -0.02900
C59         C  0.35022612  0.24092416  0.18419434    -0.13000
C60         C  0.37889645  0.25784779  0.16610399    -0.13000
C61         C  0.39081866  0.22926350  0.15437658     0.09900
C62         C  0.41821561  0.24543300  0.13544022    -0.11100
C63         C  0.43127409  0.21679047  0.12487558    -0.05000
C64         C  0.41784361  0.17230636  0.13230564    -0.11100
H65         H  0.32871065  0.05521883  0.18008499     0.07100
H66         H  0.38166156  0.08604552  0.14982038     0.07100
H67         H  0.34227534  0.26455936  0.19264127     0.07300
H68         H  0.39164076  0.29358846  0.16131105     0.07300
H69         H  0.26365084  0.11806431  0.23012651     0.03800
H70         H  0.45167455  0.22908448  0.11016025     0.03800
C71         C  0.90796563  0.16670692  0.20126609    -0.11100
C72         C  0.87672122  0.12272034  0.20946332    -0.05000
C73         C  0.83468692  0.09213516  0.19927637    -0.11100
C74         C  0.82356423  0.10562118  0.17969791     0.09900
C75         C  0.85424320  0.15112199  0.17143799    -0.02900
C76         C  0.89665926  0.18187911  0.18230194     0.09700
C77         C  0.92606677  0.22694252  0.17414108    -0.12900
C78         C  0.91415212  0.24175570  0.15561256    -0.12900
C79         C  0.87263306  0.21186267  0.14445824     0.09700
C80         C  0.84225586  0.16607782  0.15243947    -0.02900
C81         C  0.78290745  0.07515157  0.16822356    -0.13000
C82         C  0.77155751  0.08953368  0.14934918    -0.13000
C83         C  0.80017780  0.13509930  0.14139559     0.09900
C84         C  0.78826641  0.15051516  0.12257191    -0.11100
C85         C  0.81861459  0.19600995  0.11509259    -0.05000
C86         C  0.86081531  0.22649007  0.12543729    -0.11100
H87         H  0.95844001  0.25117210  0.18212911     0.07100
H88         H  0.93784712  0.27696005  0.15006073     0.07100
H89         H  0.75948943  0.03993608  0.17385306     0.07300
H90         H  0.73980019  0.06474545  0.14113149     0.07300
H91         H  0.88499163  0.11235474  0.22451888     0.03800
H92         H  0.80992279  0.20743592  0.10048056     0.03800
O93         O  0.25943227  0.88424352  0.33432356    -0.88600
C94         C  0.15856526  0.85308560  0.37908974     0.87400
Mg95       Mg  0.25918034  0.91474754  0.30404977     1.58100
O96         O  0.15925924  0.76034834  0.35267088    -0.88300
O97         O  0.26789917  0.82982240  0.34928207    -0.75600
C98         C  0.04753183  0.77199127  0.26307329     0.92500
O99         O  0.19967232  0.93317607  0.34212784    -0.75500
O100        O  0.07925478  0.81510487  0.26165093    -0.83000
Mg101      Mg  0.25164644  0.91913188  0.36123692     1.58000
C102        C  0.02721832  0.65586690  0.33239434     0.92400
O103        O  0.30498759  0.91084122  0.38174697    -0.81200
H104        H  0.18921291  0.72265991  0.34528942    -0.06600
C105        C  0.06811501  0.79736680  0.32609429     0.87400
O106        O  0.23320920  0.84407312  0.28735284    -0.75700
O107        O  0.19437437  0.85399855  0.37232375    -0.88500
O108        O  0.05848621  0.67375699  0.34663438    -0.81300
C109        C  0.11890382  0.72766675  0.40636082     0.92500
C110        C  0.30473794  0.88502812  0.39684665     0.92400
Mg111      Mg  0.09921313  0.74052942  0.30147025     1.58000
O112        O  0.04996448  0.74657243  0.27760021    -0.81200
O113        O  0.14912051  0.72605284  0.32161201    -0.75500
O114        O  0.16012560  0.76342196  0.40486299    -0.81300
O115        O  0.31437302  0.98716227  0.34992946    -0.83000
O116        O  0.19110038  0.90039059  0.25770437    -0.81300
C117        C  0.16670510  0.73579805  0.34025291     0.86800
O118        O  0.15644955  0.80660966  0.29022513    -0.88500
O119        O  0.09002726  0.77660630  0.32798288    -0.88600
O120        O  0.07999208  0.82916288  0.31218273    -0.75600
Mg121      Mg  0.21175678  0.79998925  0.37610016     1.58000
O122        O  0.09033703  0.71605813  0.39094341    -0.83000
H123        H  0.30870351  0.86994993  0.32462458    -0.06700
O124        O  0.18941102  0.90060933  0.31045319    -0.88300
H125        H  0.15763892  0.93591387  0.31920424    -0.06600
H126        H  0.19063195  0.78005725  0.27452455    -0.06700
C127        C  0.18127092  0.92367419  0.32357125     0.86800
C128        C  0.28010199  0.86208149  0.33554546     0.87400
C129        C  0.19294899  0.80897787  0.28349276     0.87400
H130        H  0.03858324  0.78867646  0.33663677    -0.06700
O131        O  0.11765167  0.81905644  0.37522110    -0.75800
Mg132      Mg  0.13756534  0.86042878  0.28610680     1.58000
H133        H  0.16211747  0.88266974  0.38794182    -0.06700
C134        C  0.32079738  0.00776768  0.33212333     0.92400
O135        O  0.25911079  0.94738417  0.27322391    -0.83000
C136        C  0.23217365  0.93689829  0.25731278     0.92500
O137        O  0.26971559  0.84413154  0.39986686    -0.83000
Mg138      Mg  0.09030097  0.74770172  0.35917510     1.58200
O139        O  0.29164107  0.98937055  0.31701650    -0.81300
O140        O  0.03433135  0.67395919  0.31385373    -0.83000
O141        O  0.64345851  0.75579171  0.34277940    -0.88600
C142        C  0.72542361  0.86702026  0.38100335     0.87400
Mg143      Mg  0.66867207  0.74576444  0.31233454     1.58100
O144        O  0.62951916  0.86807923  0.35655848    -0.88300
O145        O  0.58565723  0.75843665  0.35875891    -0.75600
C146        C  0.74221839  0.94581978  0.26207361     0.92500
O147        O  0.75525685  0.81151900  0.34674500    -0.75500
O148        O  0.74622021  0.90970530  0.26185261    -0.83000
Mg149      Mg  0.69019144  0.76932759  0.36881665     1.58000
C150        C  0.65534896  0.99144141  0.32696532     0.92400
O151        O  0.63014762  0.72585412  0.39253472    -0.81200
H152        H  0.56035354  0.83849941  0.35166814    -0.06600
C153        C  0.75589919  0.94239881  0.32442329     0.87400
O154        O  0.62484757  0.77153231  0.29469730    -0.75700
O155        O  0.68806575  0.83168112  0.37626948    -0.88500
O156        O  0.65881368  0.97602188  0.34502727    -0.81300
C157        C  0.65052056  0.92279659  0.40748203     0.92500
C158        C  0.61045849  0.73339497  0.40839576     0.92400
Mg159      Mg  0.66331001  0.90885930  0.30237537     1.58000
O160        O  0.72094334  0.95312011  0.27735347    -0.81200
O161        O  0.60040141  0.86723734  0.32506585    -0.75500
O162        O  0.63862501  0.87972922  0.40773681    -0.81300
O163        O  0.69002850  0.70181048  0.36145679    -0.83000
O164        O  0.71369863  0.80145087  0.26362811    -0.81300
C165        C  0.59544583  0.85764947  0.34491125     0.86800
O166        O  0.66772873  0.84762316  0.29549889    -0.88500
O167        O  0.71330999  0.92529669  0.32769941    -0.88600
O168        O  0.77145902  0.92358704  0.31163564    -0.75600
Mg169      Mg  0.61853854  0.82078040  0.38230669     1.58000
O170        O  0.66909750  0.94720168  0.39086455    -0.83000
H171        H  0.57600519  0.70945803  0.33665153    -0.06700
O172        O  0.72816254  0.81447080  0.31521567    -0.88300
H173        H  0.79708600  0.84350635  0.32086733    -0.06600
H174        H  0.60534157  0.81440406  0.28091224    -0.06700
C175        C  0.76158456  0.82388241  0.32716125     0.86800
C176        C  0.60088625  0.73979882  0.34562869     0.87400
C177        C  0.63177603  0.81166186  0.28986661     0.87400
H178        H  0.78053898  0.97362211  0.33294871    -0.06700
O179        O  0.73425431  0.90728476  0.37533511    -0.75800
Mg180      Mg  0.73736289  0.86041782  0.28900082     1.58000
H181        H  0.75176387  0.86346183  0.38961490    -0.06700
C182        C  0.70006156  0.68898609  0.34402672     0.92400
O183        O  0.69749983  0.73671314  0.28092409    -0.83000
C184        C  0.71207387  0.76229265  0.26434705     0.92500
O185        O  0.60775006  0.77022017  0.40944761    -0.83000
Mg186      Mg  0.69231399  0.93601780  0.35872369     1.58200
O187        O  0.70875950  0.71307707  0.32710166    -0.81300
O188        O  0.65824983  0.97328700  0.30951392    -0.83000
C189        C  0.81130451  0.70314930  0.20766427    -0.11100
C190        C  0.85226327  0.71063632  0.21785024    -0.05000
C191        C  0.88287722  0.69809480  0.20837339    -0.11100
C192        C  0.87045345  0.67349332  0.18876099     0.09900
C193        C  0.82949932  0.66609771  0.17801126    -0.02900
C194        C  0.80071971  0.68233341  0.18715479     0.09700
C195        C  0.76237763  0.67769030  0.17549414    -0.12900
C196        C  0.75094621  0.65549713  0.15578146    -0.12900
C197        C  0.77779765  0.63760246  0.14682868     0.09700
C198        C  0.81758774  0.64301788  0.15791619    -0.02900
C199        C  0.89747292  0.65579954  0.17973179    -0.13000
C200        C  0.88476254  0.63161503  0.16033266    -0.13000
C201        C  0.84560685  0.62579522  0.14886440     0.09900
C202        C  0.83360672  0.60361932  0.12851629    -0.11100
C203        C  0.79431866  0.59915247  0.11786682    -0.05000
C204        C  0.76628854  0.61524880  0.12679318    -0.11100
H205        H  0.74070369  0.69110019  0.18155906     0.07100
H206        H  0.72075569  0.65256228  0.14758749     0.07100
H207        H  0.92844180  0.66016256  0.18775578     0.07300
H208        H  0.90635406  0.61818116  0.15417512     0.07300
H209        H  0.86108808  0.72755268  0.23335381     0.03800
H210        H  0.78546924  0.58300867  0.10219127     0.03800
O211        O  0.46325618  0.05342996  0.00106923    -0.88600
C212        C  0.49222601  0.98102630  0.04571102     0.87400
Mg213      Mg  0.42357019  0.02468959  0.97230239     1.58100
O214        O  0.58516091  0.06232670  0.01239865    -0.88300
O215        O  0.52581950  0.11356911  0.01392308    -0.75600
C216        C  0.51800070  0.91238523  0.92941992     0.92500
O217        O  0.39844998  0.94537995  0.01360723    -0.75500
O218        O  0.47945436  0.91236491  0.92888763    -0.83000
Mg219      Mg  0.43154017  0.01672713  0.03023211     1.58000
C220        C  0.66462588  0.01020152  0.98518406     0.92400
O221        O  0.45723083  0.08480085  0.04905516    -0.81200
H222        H  0.62621558  0.12604630  0.99996086    -0.06600
C223        C  0.51457468  0.92491047  0.99266468     0.87400
O224        O  0.49014753  0.05389466  0.95190282    -0.75700
O225        O  0.49529646  0.01569509  0.03697111    -0.88500
O226        O  0.65539752  0.02804758  0.00104603    -0.81300
C227        C  0.63168668  0.05855839  0.06332398     0.92500
C228        C  0.48268686  0.09834300  0.06568799     0.92400
Mg229      Mg  0.57346544  0.00043181  0.96235011     1.58000
O230        O  0.54629061  0.93074446  0.94493219    -0.81200
O231        O  0.60618984  0.07335792  0.97847551    -0.75500
O232        O  0.60163028  0.07204471  0.06345066    -0.81300
O233        O  0.36523534  0.01899319  0.02335919    -0.83000
O234        O  0.40519543  0.94721429  0.92974752    -0.81300
C235        C  0.60670568  0.08875223  0.99724158     0.86800
O236        O  0.51087677  0.00184883  0.95541580    -0.88500
O237        O  0.54323056  0.96715057  0.99200283    -0.88600
O238        O  0.47826009  0.90673632  0.98094287    -0.75600
Mg239      Mg  0.55708012  0.08425363  0.03812852     1.58000
O240        O  0.63184178  0.03258016  0.04847963    -0.83000
H241        H  0.48386384  0.11853527  0.99168312    -0.06700
O242        O  0.42043686  0.95933219  0.97995209    -0.88300
H243        H  0.37642735  0.89497453  0.99092960    -0.06600
H244        H  0.54509647  0.05655146  0.93582230    -0.06700
C245        C  0.39719734  0.93183526  0.99447701     0.86800
C246        C  0.49040233  0.09592971  0.00168784     0.87400
C247        C  0.51631285  0.03767325  0.94695712     0.87400
H248        H  0.52044767  0.90298335  0.00345174    -0.06700
O249        O  0.52106549  0.96760009  0.04123414    -0.75800
Mg250      Mg  0.44759448  0.93432219  0.95549175     1.58000
H251        H  0.46401127  0.96130217  0.05699481    -0.06700
C252        C  0.34106087  0.01078503  0.00651184     0.92400
O253        O  0.38131196  0.99386372  0.94240275    -0.83000
C254        C  0.37901478  0.96512025  0.92843059     0.92500
O255        O  0.52188828  0.09962025  0.06585410    -0.83000
Mg256      Mg  0.58658444  0.99944213  0.01955185     1.58200
O257        O  0.35438756  0.00355119  0.98860253    -0.81300
O258        O  0.63822144  0.99574973  0.96899407    -0.83000
O259        O  0.54899929  0.57809658  0.99162791    -0.88600
C260        C  0.50949720  0.46206365  0.95503526     0.87400
Mg261      Mg  0.58822984  0.59071297  0.02063391     1.58100
O262        O  0.41779391  0.46255458  0.98429616    -0.88300
O263        O  0.48451579  0.57259341  0.97933716    -0.75600
C264        C  0.47029216  0.39514582  0.07569084     0.92500
O265        O  0.60349380  0.52207215  0.98509557    -0.75500
O266        O  0.51108711  0.43089025  0.07395682    -0.83000
Mg267      Mg  0.57673523  0.56114069  0.96422068     1.58000
C268        C  0.32496607  0.34271802  0.01938928     0.92400
O269        O  0.55678339  0.60219453  0.94110879    -0.81200
H270        H  0.37829715  0.49099376  0.99090711    -0.06600
C271        C  0.47505728  0.39178382  0.01260426     0.87400
O272        O  0.52082407  0.56484794  0.04072057    -0.75700
O273        O  0.50965846  0.49797916  0.96028836    -0.88500
O274        O  0.33913178  0.35463539  0.00014789    -0.81300
C275        C  0.37507276  0.40516971  0.93465230     0.92500
C276        C  0.52566549  0.59391790  0.92711096     0.92400
Mg277      Mg  0.42138160  0.42751940  0.03800369     1.58000
O278        O  0.43905048  0.38636014  0.06173500    -0.81200
O279        O  0.39492467  0.46576923  0.01685385    -0.75500
O280        O  0.40810783  0.44772081  0.93395414    -0.81300
O281        O  0.64661180  0.62880781  0.96821892    -0.83000
O282        O  0.58422069  0.53711447  0.06868733    -0.81300
C283        C  0.39587777  0.47332697  0.99691706     0.86800
O284        O  0.48832167  0.48905786  0.04118711    -0.88500
O285        O  0.44852095  0.40767522  0.01097633    -0.88600
O286        O  0.51254645  0.41249266  0.02346521    -0.75600
Mg287      Mg  0.45043011  0.50829340  0.95727902     1.58000
O288        O  0.36881594  0.38035943  0.95114359    -0.83000
H289        H  0.52955387  0.62447795  0.99907921    -0.06700
O290        O  0.57888163  0.52209483  0.01773406    -0.88300
H291        H  0.61828428  0.49375823  0.01052972    -0.06600
H292        H  0.46079749  0.52190403  0.05714183    -0.06700
C293        C  0.60108282  0.51211432  0.00487201     0.86800
C294        C  0.52181400  0.59327352  0.99034621     0.87400
C295        C  0.48880549  0.52482508  0.04696967     0.87400
H296        H  0.46669160  0.36003816  0.00420227    -0.06700
O297        O  0.47783901  0.42218339  0.96167709    -0.75800
Mg298      Mg  0.54603901  0.47745444  0.04499959     1.58000
H299        H  0.53753310  0.46473644  0.94495594    -0.06700
C300        C  0.67228135  0.64572628  0.98462774     0.92400
O301        O  0.62891705  0.60284938  0.05128577    -0.83000
C302        C  0.61915076  0.57843786  0.06818080     0.92500
O303        O  0.48529419  0.55710389  0.92836688    -0.83000
Mg304      Mg  0.41002011  0.39403921  0.98181980     1.58200
O305        O  0.65966830  0.62607942  0.00287954    -0.81300
O306        O  0.35086028  0.36333266  0.03528277    -0.83000
O307        O  0.03713578  0.45144794  0.99219034    -0.88600
C308        C  0.96500844  0.48847089  0.95091137     0.87400
Mg309      Mg  0.00891036  0.41537813  0.02220080     1.58100
O310        O  0.05670060  0.58022028  0.97968108    -0.88300
O311        O  0.09847165  0.51185528  0.97790784    -0.75600
C312        C  0.92350230  0.53670543  0.06961352     0.92500
O313        O  0.92546255  0.39945085  0.98490718    -0.75500
O314        O  0.91936849  0.49647959  0.07033706    -0.83000
Mg315      Mg  0.99220793  0.42145208  0.96479560     1.58000
C316        C  0.02102884  0.67469273  0.00992113     0.92400
O317        O  0.05310953  0.43457912  0.94257335    -0.81200
H318        H  0.12406178  0.61853267  0.98844828    -0.06600
C319        C  0.92295083  0.52427886  0.00631790     0.87400
O320        O  0.04814745  0.48417100  0.04096086    -0.75700
O321        O  0.99969389  0.48800295  0.95785029    -0.88500
O322        O  0.02776029  0.66096336  0.99186483    -0.81300
C323        C  0.04737588  0.61987116  0.92845217     0.92500
C324        C  0.07680165  0.46160210  0.92726354     0.92400
Mg325      Mg  0.00909101  0.58139936  0.03257657     1.58000
O326        O  0.94611197  0.56488267  0.05444918    -0.81200
O327        O  0.07715566  0.60548648  0.01253081    -0.75500
O328        O  0.05359955  0.58486929  0.92771747    -0.81300
O329        O  0.98493022  0.35144253  0.97092346    -0.83000
O330        O  0.95351485  0.42076067  0.06957118    -0.81300
C331        C  0.08743806  0.60218893  0.99316720     0.86800
O332        O  0.00428877  0.51581162  0.03915994    -0.88500
O333        O  0.96597360  0.55088553  0.00497264    -0.88600
O334        O  0.90512899  0.48915112  0.01879716    -0.75600
Mg335      Mg  0.07066755  0.54437211  0.95363614     1.58000
O336        O  0.02966572  0.62760530  0.94497045    -0.83000
H337        H  0.10297458  0.46954050  0.99998635    -0.06700
O338        O  0.94789837  0.42247038  0.01781567    -0.88300
H339        H  0.88009327  0.38579963  0.00965552    -0.06600
H340        H  0.06434722  0.54503992  0.05560728    -0.06700
C341        C  0.91640595  0.40152010  0.00453815     0.86800
C342        C  0.08023743  0.47687763  0.99044156     0.87400
C343        C  0.03964574  0.51625746  0.04581073     0.87400
H344        H  0.89995462  0.53076337  0.99651680    -0.06700
O345        O  0.95673294  0.52060615  0.95597051    -0.75800
Mg346      Mg  0.93408309  0.45802011  0.04336388     1.58000
H347        H  0.94061939  0.46037155  0.94071966    -0.06700
C348        C  0.97928283  0.32775369  0.98769009     0.92400
O349        O  0.97667511  0.37660925  0.05325760    -0.83000
C350        C  0.95968679  0.38582289  0.06962439     0.92500
O351        O  0.08393005  0.50321187  0.92635528    -0.83000
Mg352      Mg  0.99617919  0.58838387  0.97541909     1.58200
O353        O  0.97908943  0.34347841  0.00625318    -0.81300
O354        O  0.01210395  0.64993662  0.02660370    -0.83000
O355        O  0.27878861  0.07475111  0.66601421    -0.88600
C356        C  0.35996918  0.17535904  0.70884628     0.87400
Mg357      Mg  0.30480970  0.06741037  0.63558074     1.58100
O358        O  0.27399272  0.18894157  0.68184502    -0.88300
O359        O  0.22066372  0.07812654  0.68098343    -0.75600
C360        C  0.40584400  0.27631889  0.59148721     0.92500
O361        O  0.38960761  0.12184308  0.67364428    -0.75500
O362        O  0.40771416  0.23899427  0.59092329    -0.83000
Mg363      Mg  0.32084338  0.08039648  0.69315389     1.58000
C364        C  0.31659328  0.32058000  0.65700851     0.92400
O365        O  0.25633157  0.03531904  0.71478402    -0.81200
H366        H  0.20731194  0.16616678  0.67357366    -0.06600
C367        C  0.40767888  0.26117188  0.65533856     0.87400
O368        O  0.27090948  0.10356274  0.61829904    -0.75700
O369        O  0.32258374  0.14340856  0.70179548    -0.88500
O370        O  0.31061049  0.29766499  0.67412786    -0.81300
C371        C  0.28985017  0.23338643  0.73534811     0.92500
C372        C  0.23960791  0.04497243  0.73112693     0.92400
Mg373      Mg  0.32334359  0.24094892  0.62985933     1.58000
O374        O  0.38705360  0.28531078  0.60733296    -0.81200
O375        O  0.25479784  0.19917163  0.64962733    -0.75500
O376        O  0.27560007  0.19013083  0.73343013    -0.81300
O377        O  0.31933323  0.01395060  0.68453144    -0.83000
O378        O  0.37163716  0.12956544  0.59012506    -0.81300
C379        C  0.24394679  0.18426468  0.66875229     0.86800
O380        O  0.32198850  0.17787446  0.62085300    -0.88500
O381        O  0.36516109  0.24656788  0.65708096    -0.88600
O382        O  0.42328004  0.24307241  0.64216768    -0.75600
Mg383      Mg  0.25479567  0.13653559  0.70620123     1.58000
O384        O  0.31132233  0.26117407  0.71995962    -0.83000
H385        H  0.21184835  0.03176500  0.65765395    -0.06700
O386        O  0.37006377  0.13194858  0.64149968    -0.88300
H387        H  0.43677889  0.15430547  0.64954275    -0.06600
H388        H  0.26226981  0.15386910  0.60447840    -0.06700
C389        C  0.40023137  0.13647740  0.65448332     0.86800
C390        C  0.23625933  0.06012931  0.66775600     0.87400
C391        C  0.28457804  0.14575980  0.61390825     0.87400
H392        H  0.43210203  0.28965416  0.66538422    -0.06700
O393        O  0.37352995  0.21764554  0.70473025    -0.75800
Mg394      Mg  0.39017820  0.18441300  0.61699678     1.58000
H395        H  0.38230989  0.16704790  0.71813313    -0.06700
C396        C  0.32753739  0.00076050  0.66681145     0.92400
O397        O  0.33251823  0.05887017  0.60399976    -0.83000
C398        C  0.35650289  0.08590938  0.58884445     0.92500
O399        O  0.23885570  0.08276111  0.73204870    -0.83000
Mg400      Mg  0.33884824  0.25341267  0.68777647     1.58200
O401        O  0.33159271  0.02204879  0.64938531    -0.81300
O402        O  0.32543249  0.30813891  0.63916298    -0.83000
C403        C  0.22581314  0.36624594  0.87608969    -0.11100
C404        C  0.19790490  0.38357761  0.88396719    -0.05000
C405        C  0.15859843  0.37799024  0.87281768    -0.11100
C406        C  0.14557112  0.35188942  0.85333982     0.09900
C407        C  0.17476740  0.33545259  0.84487119    -0.02900
C408        C  0.21529168  0.34329636  0.85618705     0.09700
C409        C  0.24444424  0.32791562  0.84741105    -0.12900
C410        C  0.23508505  0.30662692  0.82753317    -0.12900
C411        C  0.19509794  0.29803530  0.81606386     0.09700
C412        C  0.16372529  0.31121323  0.82499976    -0.02900
C413        C  0.10440643  0.34129628  0.84215910    -0.13000
C414        C  0.09181161  0.31453271  0.82336213    -0.13000
C415        C  0.12166144  0.30035738  0.81408984     0.09900
C416        C  0.11134938  0.27592722  0.79421448    -0.11100
C417        C  0.14485346  0.26673910  0.78511569    -0.05000
C418        C  0.18614020  0.27713669  0.79569403    -0.11100
H419        H  0.27546262  0.33304096  0.85565474     0.07100
H420        H  0.25932259  0.29647257  0.82131123     0.07100
H421        H  0.08111670  0.35287179  0.84812377     0.07300
H422        H  0.05902803  0.30613778  0.81580476     0.07300
H423        H  0.20699414  0.40181969  0.89915174     0.03800
H424        H  0.13835148  0.25052623  0.76946827     0.03800
C425        C  0.14378525  0.78523195  0.87540146    -0.11100
C426        C  0.18750035  0.81759892  0.88405992    -0.05000
C427        C  0.21660417  0.86114079  0.87442591    -0.11100
C428        C  0.20200132  0.87270200  0.85530683     0.09900
C429        C  0.15770134  0.84040970  0.84637234    -0.02900
C430        C  0.12829035  0.79681475  0.85655157     0.09700
C431        C  0.08398362  0.76606902  0.84771533    -0.12900
C432        C  0.06849225  0.77803002  0.82945547    -0.12900
C433        C  0.09773714  0.81998985  0.81858349     0.09700
C434        C  0.14271630  0.85173371  0.82719596    -0.02900
C435        C  0.23029723  0.91581322  0.84500783    -0.13000
C436        C  0.21595977  0.92660170  0.82600039    -0.13000
C437        C  0.17267160  0.89482166  0.81669114     0.09900
C438        C  0.15827181  0.90473434  0.79710944    -0.11100
C439        C  0.11448149  0.87266499  0.78870476    -0.05000
C440        C  0.08349838  0.83119744  0.79924988    -0.11100
H441        H  0.06053470  0.73253850  0.85497923     0.07100
H442        H  0.03366349  0.75354448  0.82363891     0.07100
H443        H  0.26405192  0.94142170  0.85147260     0.07300
H444        H  0.23915147  0.96004734  0.81856856     0.07300
H445        H  0.19881899  0.80897273  0.89871847     0.03800
H446        H  0.10398373  0.88046822  0.77357526     0.03800
O447        O  0.91496097  0.20984242  0.67044192    -0.88600
C448        C  0.81657843  0.18418547  0.71703910     0.87400
Mg449      Mg  0.92037897  0.24563744  0.64030187     1.58100
O450        O  0.80556429  0.08791252  0.68774683    -0.88300
O451        O  0.91695889  0.15176345  0.68553781    -0.75600
C452        C  0.70683132  0.12820525  0.60056728     0.92500
O453        O  0.86495889  0.26805625  0.68032163    -0.75500
O454        O  0.74355434  0.16845295  0.59873836    -0.83000
Mg455      Mg  0.91045464  0.24460731  0.69856851     1.58000
C456        C  0.67261097  0.99532488  0.66305368     0.92400
O457        O  0.95915546  0.22959380  0.71928745    -0.81200
H458        H  0.83286622  0.04969108  0.67733375    -0.06600
C459        C  0.72854592  0.14576784  0.66343797     0.87400
O460        O  0.88712683  0.17680866  0.62175878    -0.75700
O461        O  0.84906653  0.18143478  0.70872818    -0.88500
O462        O  0.69273828  0.01410347  0.68044911    -0.81300
C463        C  0.76145643  0.04938261  0.74004032     0.92500
C464        C  0.95328442  0.20361701  0.73536601     0.92400
Mg465      Mg  0.75150270  0.08530327  0.63632313     1.58000
O466        O  0.70265387  0.10040670  0.61560936    -0.81200
O467        O  0.79755782  0.06301580  0.65460152    -0.75500
O468        O  0.80425441  0.08304850  0.73992283    -0.81300
O469        O  0.97657749  0.30981638  0.68855242    -0.83000
O470        O  0.85542872  0.24417931  0.59536641    -0.81300
C471        C  0.81245373  0.06592126  0.67359074     0.86800
O472        O  0.81200969  0.14908300  0.62654797    -0.88500
O473        O  0.74519754  0.11989564  0.66454137    -0.88600
O474        O  0.74419405  0.17904515  0.64999708    -0.75600
Mg475      Mg  0.85911344  0.12272126  0.71196479     1.58000
O476        O  0.73412779  0.04486001  0.72483704    -0.83000
H477        H  0.96039765  0.19008445  0.66110239    -0.06700
O478        O  0.85455173  0.24116246  0.64747547    -0.88300
H479        H  0.82897793  0.28104446  0.65774777    -0.06600
H480        H  0.83666784  0.11696843  0.60803379    -0.06700
C481        C  0.84891477  0.26425792  0.66149392     0.86800
C482        C  0.93207239  0.18441789  0.67176345     0.87400
C483        C  0.84457464  0.14644885  0.61814174     0.87400
H484        H  0.70035361  0.14018041  0.67417205    -0.06700
O485        O  0.77415687  0.15374127  0.71337472    -0.75800
Mg486      Mg  0.80141310  0.20742305  0.62353377     1.58000
H487        H  0.82439908  0.21363151  0.72715404    -0.06700
C488        C  0.98639420  0.33217596  0.67110074     0.92400
O489        O  0.92609023  0.28509744  0.60957045    -0.83000
C490        C  0.89781294  0.27822894  0.59440556     0.92500
O491        O  0.91616075  0.16358024  0.73729050    -0.83000
Mg492      Mg  0.73956304  0.08490852  0.69470594     1.58200
O493        O  0.95994925  0.31682073  0.65497035    -0.81300
O494        O  0.68715312  0.01648266  0.64530654    -0.83000
O495        O  0.74336397  0.63515094  0.65726080    -0.88600
C496        C  0.85962842  0.70719602  0.61915482     0.87400
Mg497      Mg  0.73079882  0.66043816  0.68655673     1.58100
O498        O  0.85458244  0.61524692  0.64960101    -0.88300
O499        O  0.74409600  0.57367970  0.64542653    -0.75600
C500        C  0.92885054  0.74065418  0.74083160     0.92500
O501        O  0.80406093  0.74644414  0.65174472    -0.75500
O502        O  0.89304070  0.74563645  0.74003175    -0.83000
Mg503      Mg  0.76324698  0.68189139  0.63033537     1.58000
C504        C  0.97994269  0.64775893  0.68327409     0.92400
O505        O  0.72260083  0.62575708  0.60633432    -0.81200
H506        H  0.82432135  0.54775010  0.65746962    -0.06600
C507        C  0.92979888  0.74569958  0.67696103     0.87400
O508        O  0.75576791  0.61894083  0.70619063    -0.75700
O509        O  0.82288351  0.67333284  0.62576673    -0.88500
O510        O  0.96473303  0.64569636  0.66437785    -0.81300
C511        C  0.90753527  0.62200444  0.59938056     0.92500
C512        C  0.72235823  0.59537700  0.59402279     0.92400
Mg513      Mg  0.89409239  0.65839390  0.70306572     1.58000
O514        O  0.93703801  0.71893641  0.72620365    -0.81200
O515        O  0.85317109  0.59213321  0.68252634    -0.75500
O516        O  0.86767443  0.61948276  0.59789625    -0.81300
O517        O  0.69660499  0.68470614  0.63454273    -0.83000
O518        O  0.78387720  0.71773895  0.73509987    -0.81300
C519        C  0.84357682  0.58364401  0.66278939     0.86800
O520        O  0.83212975  0.66352954  0.70766980    -0.88500
O521        O  0.91296144  0.70315359  0.67522930    -0.88600
O522        O  0.91050504  0.76253335  0.68881705    -0.75600
Mg523      Mg  0.80765704  0.60167498  0.62276570     1.58000
O524        O  0.93245448  0.63904933  0.61608655    -0.83000
H525        H  0.69305881  0.57037620  0.66493181    -0.06700
O526        O  0.80052763  0.72110037  0.68436521    -0.88300
H527        H  0.83206619  0.78910306  0.67739706    -0.06600
H528        H  0.79773184  0.60227756  0.72295203    -0.06700
C529        C  0.81259606  0.75358149  0.67159492     0.86800
C530        C  0.72510949  0.59235957  0.65609003     0.87400
C531        C  0.79558751  0.62760771  0.71293292     0.87400
H532        H  0.96142865  0.76908739  0.66815377    -0.06700
O533        O  0.89941394  0.71423436  0.62503468    -0.75800
Mg534      Mg  0.84535881  0.73371013  0.71131953     1.58000
H535        H  0.85787517  0.73179588  0.60846725    -0.06700
C536        C  0.67720680  0.68985212  0.65107951     0.92400
O537        O  0.71725609  0.68647587  0.71720060    -0.83000
C538        C  0.74057474  0.70610314  0.73385043     0.92500
O539        O  0.75438455  0.58457624  0.59511609    -0.83000
Mg540      Mg  0.92449708  0.67447577  0.64599859     1.58200
O541        O  0.69542162  0.69582300  0.66953438    -0.81300
O542        O  0.95985840  0.65364813  0.69936278    -0.83000
C543        C  0.57516205  0.81951215  0.86867542    -0.11100
C544        C  0.56323921  0.77615451  0.87741838    -0.05000
C545        C  0.57478463  0.74587322  0.86723532    -0.11100
C546        C  0.59964785  0.75962902  0.84749376     0.09900
C547        C  0.61423787  0.80463952  0.83885231    -0.02900
C548        C  0.60153686  0.83452941  0.84935054     0.09700
C549        C  0.61610132  0.87869593  0.84043134    -0.12900
C550        C  0.64491837  0.89440024  0.82225134    -0.12900
C551        C  0.65786280  0.86546910  0.81142471     0.09700
C552        C  0.64188491  0.81986970  0.81976200    -0.02900
C553        C  0.61057141  0.72975577  0.83627514    -0.13000
C554        C  0.63689345  0.74427934  0.81743245    -0.13000
C555        C  0.65359981  0.78939621  0.80914073     0.09900
C556        C  0.68133197  0.80450927  0.79032653    -0.11100
C557        C  0.69691082  0.84940387  0.78227169    -0.05000
C558        C  0.68609665  0.88056688  0.79246894    -0.11100
H559        H  0.60626333  0.90205195  0.84777916     0.07100
H560        H  0.65654356  0.92935259  0.81660190     0.07100
H561        H  0.59903451  0.69491208  0.84208980     0.07300
H562        H  0.64447797  0.71982152  0.80952142     0.07300
H563        H  0.54476801  0.76586844  0.89266575     0.03800
H564        H  0.71761490  0.86016602  0.76763148     0.03800
C565        C  0.05309356  0.49481064  0.46036244    -0.11100
C566        C  0.06941303  0.54019323  0.45273678    -0.05000
C567        C  0.06068399  0.57183510  0.46368651    -0.11100
C568        C  0.03686683  0.55870275  0.48364976     0.09900
C569        C  0.02129913  0.51341935  0.49205447    -0.02900
C570        C  0.02865037  0.48106345  0.48022256     0.09700
C571        C  0.01070169  0.43575003  0.48841731    -0.12900
C572        C  0.98863514  0.42324326  0.50840194    -0.12900
C573        C  0.98234259  0.45510866  0.52072370     0.09700
C574        C  0.99754359  0.50019054  0.51218141    -0.02900
C575        C  0.02787885  0.58954108  0.49531623    -0.13000
C576        C  0.00361150  0.57617501  0.51473175    -0.13000
C577        C  0.98862624  0.53193309  0.52358939     0.09900
C578        C  0.96480286  0.51858964  0.54354884    -0.11100
C579        C  0.95200526  0.47476786  0.55220508    -0.05000
C580        C  0.96052023  0.44284113  0.54120718    -0.11100
H581        H  0.01410934  0.40963423  0.47954441     0.07100
H582        H  0.97626764  0.38814906  0.51408584     0.07100
H583        H  0.03934568  0.62431632  0.48943743     0.07300
H584        H  0.99718929  0.60118221  0.52288649     0.07300
H585        H  0.08763608  0.55046869  0.43744068     0.03800
H586        H  0.93446540  0.46506013  0.56765671     0.03800
C587        C  0.51738680  0.57348638  0.46372905    -0.11100
C588        C  0.47640830  0.54402399  0.45262505    -0.05000
C589        C  0.44658563  0.49769113  0.45858870    -0.11100
C590        C  0.45853477  0.47916083  0.47629001     0.09900
C591        C  0.49997318  0.50880450  0.48804014    -0.02900
C592        C  0.52904456  0.55637972  0.48197036     0.09700
C593        C  0.56887882  0.58547103  0.49421705    -0.12900
C594        C  0.58132546  0.56790612  0.51156929    -0.12900
C595        C  0.55398643  0.52073873  0.51750823     0.09700
C596        C  0.51244104  0.49094812  0.50588598    -0.02900
C597        C  0.43074273  0.43215569  0.48246563    -0.13000
C598        C  0.44272795  0.41472372  0.50017280    -0.13000
C599        C  0.48298473  0.44364802  0.51229557     0.09900
C600        C  0.49476481  0.42693809  0.53075549    -0.11100
C601        C  0.53680370  0.45650480  0.54138682    -0.05000
C602        C  0.56652357  0.50273573  0.53508893    -0.11100
H603        H  0.59100034  0.62208329  0.49031325     0.07100
H604        H  0.61263144  0.59170306  0.52034713     0.07100
H605        H  0.39936925  0.40859978  0.47365985     0.07300
H606        H  0.42013930  0.37835024  0.50439039     0.07300
H607        H  0.46765889  0.55748509  0.43868459     0.03800
H608        H  0.54578560  0.44377775  0.55550292     0.03800
C609        C  0.46337048  0.95842561  0.45536551    -0.11100
C610        C  0.50298249  0.95684785  0.44841634    -0.05000
C611        C  0.54323005  0.97355073  0.46098448    -0.11100
C612        C  0.54545003  0.99526762  0.48077460     0.09900
C613        C  0.50580783  0.99760958  0.48813321    -0.02900
C614        C  0.46428230  0.97830630  0.47561781     0.09700
C615        C  0.42495658  0.97958678  0.48364952    -0.12900
C616        C  0.42692899  0.00115826  0.50307400    -0.12900
C617        C  0.46794454  0.02134674  0.51546901     0.09700
C618        C  0.50767176  0.01924032  0.50806750    -0.02900
C619        C  0.58641911  0.01535836  0.49317164    -0.13000
C620        C  0.58852039  0.03724801  0.51251571    -0.13000
C621        C  0.54927196  0.03871598  0.52053847     0.09900
C622        C  0.55038220  0.05890788  0.54074522    -0.11100
C623        C  0.51071213  0.06044282  0.54771655    -0.05000
C624        C  0.47013227  0.04302216  0.53526490    -0.11100
H625        H  0.39230735  0.96418097  0.47487718     0.07100
H626        H  0.39585886  0.00167920  0.50838527     0.07100
H627        H  0.61741343  0.01467919  0.48787342     0.07300
H628        H  0.62124301  0.05276219  0.52122961     0.07300
H629        H  0.50236805  0.94192638  0.43288996     0.03800
H630        H  0.51137785  0.07546954  0.56321660     0.03800
O631        O  0.94047167  0.01644740  0.98316344    -0.88600
C632        C  0.01815975  0.07709381  0.03664178     0.87400
Mg633      Mg  0.88838868  0.94332020  0.98168787     1.58100
O634        O  0.07912511  0.06491842  0.99328910    -0.88300
O635        O  0.00210168  0.07158159  0.96641022    -0.75600
C636        C  0.00236121  0.83915157  0.01457232     0.92500
O637        O  0.91005462  0.98890433  0.03259113    -0.75500
O638        O  0.96128419  0.83382518  0.01501017    -0.83000
Mg639      Mg  0.93543153  0.05277409  0.01060123     1.58000
C640        C  0.16657491  0.01037508  0.00484844     0.92400
O641        O  0.95312456  0.11820916  0.99111824    -0.81200
H642        H  0.09936477  0.07663952  0.96263159    -0.06600
C643        C  0.03338027  0.96349828  0.03939378     0.87400
O644        O  0.93949350  0.92720223  0.96392963    -0.75700
O645        O  0.00677373  0.07514885  0.01773246    -0.88500
O646        O  0.16296523  0.04557695  0.00997593    -0.81300
C647        C  0.15019767  0.16898971  0.02231997     0.92500
C648        C  0.98871252  0.15905561  0.98994318     0.92400
Mg649      Mg  0.05568630  0.94670328  0.99424019     1.58000
O650        O  0.03915544  0.87898843  0.01193020    -0.81200
O651        O  0.07842906  0.01105858  0.97291507    -0.75500
O652        O  0.11065109  0.16337288  0.01684965    -0.81300
O653        O  0.86192003  0.03058066  0.00268750    -0.83000
O654        O  0.87383290  0.83300202  0.99315835    -0.81300
C655        C  0.08672599  0.05233734  0.97586617     0.86800
O656        O  0.98307031  0.92267639  0.98870383    -0.88500
O657        O  0.05336719  0.98288029  0.02250925    -0.88600
O658        O  0.99116842  0.92967927  0.03969962    -0.75600
Mg659      Mg  0.05524671  0.11423413  0.99284730     1.58000
O660        O  0.15651194  0.13436119  0.02365468    -0.83000
H661        H  0.94258853  0.02361902  0.95136533    -0.06700
O662        O  0.91117969  0.93485700  0.01301711    -0.88300
H663        H  0.88838294  0.92346148  0.04334414    -0.06600
H664        H  0.98961837  0.91031454  0.95796787    -0.06700
C665        C  0.90216642  0.94762850  0.03007588     0.86800
C666        C  0.96053277  0.03653895  0.96639444     0.87400
C667        C  0.97138426  0.91913529  0.96980741     0.87400
H668        H  0.05187478  0.97635859  0.05431129    -0.06700
O669        O  0.05129664  0.07031983  0.04205379    -0.75800
Mg670      Mg  0.93533771  0.88551326  0.01449533     1.58000
H671        H  0.99908414  0.08393568  0.04883440    -0.06700
C672        C  0.82674025  0.99220566  0.99717525     0.92400
O673        O  0.83458287  0.86636153  0.98070655    -0.83000
C674        C  0.83715626  0.83033368  0.98501380     0.92500
O675        O  0.03005332  0.16620481  0.99236540    -0.83000
Mg676      Mg  0.10396143  0.05665109  0.02359792     1.58200
O677        O  0.82916102  0.95566903  0.99384237    -0.81300
O678        O  0.13130693  0.97140933  0.99981129    -0.83000
O679        O  0.65490630  0.39192567  0.35896704    -0.88600
C680        C  0.58721726  0.31100985  0.30740156     0.87400
Mg681      Mg  0.72882271  0.44410271  0.35749307     1.58100
O682        O  0.61254100  0.25489118  0.34873857    -0.88300
O683        O  0.60529887  0.33073333  0.37745510    -0.75600
C684        C  0.83890627  0.34270657  0.31724924     0.92500
O685        O  0.67295858  0.41923711  0.30925663    -0.75500
O686        O  0.83971398  0.38127103  0.31704675    -0.83000
Mg687      Mg  0.61191645  0.39348720  0.33355393     1.58000
C688        C  0.66725408  0.17058751  0.33253192     0.92400
O689        O  0.54457959  0.37093362  0.35446874    -0.81200
H690        H  0.60742545  0.23504215  0.37924142    -0.06600
C691        C  0.70607666  0.30075589  0.29843731     0.87400
O692        O  0.74945284  0.39532300  0.37368281    -0.75700
O693        O  0.59004802  0.32173227  0.32648551    -0.88500
O694        O  0.63135652  0.17451344  0.32916099    -0.81300
C695        C  0.50243615  0.17581478  0.32371332     0.92500
C696        C  0.50565667  0.33219088  0.35597148     0.92400
Mg697      Mg  0.73307215  0.28219575  0.34182281     1.58000
O698        O  0.80107608  0.30404465  0.32125640    -0.81200
O699        O  0.67159394  0.25751572  0.36577477    -0.75500
O700        O  0.50584893  0.21030829  0.33407291    -0.81300
O701        O  0.63665559  0.47004283  0.34077832    -0.83000
O702        O  0.83802192  0.46321358  0.33933240    -0.81300
C703        C  0.62915442  0.24810060  0.36505696     0.86800
O704        O  0.75517941  0.35382885  0.34794806    -0.88500
O705        O  0.69032027  0.28255049  0.31601724    -0.88600
O706        O  0.73816081  0.34317411  0.29683621    -0.75600
Mg707      Mg  0.55977554  0.27380082  0.35306302     1.58000
O708        O  0.53903073  0.17622969  0.31692320    -0.83000
H709        H  0.65309526  0.39225964  0.39091895    -0.06700
O710        O  0.73111076  0.41906603  0.32576107    -0.88300
H711        H  0.73685297  0.44111898  0.29559264    -0.06600
H712        H  0.77090394  0.34857269  0.37823236    -0.06700
C713        C  0.71501263  0.42745127  0.30970679     0.86800
C714        C  0.63845447  0.37289421  0.37634857     0.87400
C715        C  0.75965602  0.36548086  0.36694172     0.87400
H716        H  0.69125033  0.28050934  0.28409242    -0.06700
O717        O  0.59759168  0.28117324  0.30079830    -0.75800
Mg718      Mg  0.78381839  0.40031237  0.32081392     1.58000
H719        H  0.57718348  0.32864932  0.29593926    -0.06700
C720        C  0.67834342  0.50476405  0.34263263     0.92400
O721        O  0.80661714  0.49988576  0.35607596    -0.83000
C722        C  0.84225293  0.49884964  0.34887569     0.92500
O723        O  0.50408770  0.29327588  0.35556254    -0.83000
Mg724      Mg  0.61669810  0.23102998  0.31692185     1.58200
O725        O  0.71365266  0.49953660  0.34505326    -0.81300
O726        O  0.70806133  0.20581510  0.33567160    -0.83000
O727        O  0.26711983  0.68815196  0.65578193    -0.88600
C728        C  0.36871612  0.74089412  0.70059529     0.87400
Mg729      Mg  0.21343582  0.61707136  0.65754123     1.58100
O730        O  0.40339572  0.71974496  0.65026580    -0.88300
O731        O  0.32191141  0.73602875  0.63374185    -0.75600
C732        C  0.31618475  0.49293129  0.66554934     0.92500
O733        O  0.25789998  0.65930712  0.70544543    -0.75500
O734        O  0.27859432  0.49248820  0.67053537    -0.83000
Mg735      Mg  0.27753641  0.72489149  0.68514342     1.58000
C736        C  0.48816709  0.65831795  0.64881013     0.92400
O737        O  0.29581568  0.79400505  0.66918645    -0.81200
H738        H  0.41739118  0.73519773  0.61922648    -0.06600
C739        C  0.37279636  0.61755625  0.69434354     0.87400
O740        O  0.25093181  0.59823249  0.63139816    -0.75700
O741        O  0.34983300  0.74175723  0.68374039    -0.88500
O742        O  0.48689112  0.69357315  0.65580537    -0.81300
C743        C  0.49595176  0.82148070  0.67244523     0.92500
C744        C  0.33299167  0.83092579  0.66315616     0.92400
Mg745      Mg  0.37405669  0.60172035  0.64647569     1.58000
O746        O  0.35429935  0.53042638  0.66094163    -0.81200
O747        O  0.39605304  0.66800146  0.62684180    -0.75500
O748        O  0.45752909  0.82184441  0.67188992    -0.81300
O749        O  0.20017178  0.70617094  0.68500222    -0.83000
O750        O  0.19547233  0.50589422  0.65957180    -0.81300
C751        C  0.40650025  0.70916823  0.63167055     0.86800
O752        O  0.30207481  0.58609105  0.64807392    -0.88500
O753        O  0.38506657  0.63730075  0.67683201    -0.88600
O754        O  0.33040076  0.58642318  0.69798146    -0.75600
Mg755      Mg  0.38774510  0.77458114  0.65455563     1.58000
O756        O  0.49641971  0.78368606  0.67337704    -0.83000
H757        H  0.25368273  0.69428563  0.62522172    -0.06700
O758        O  0.25120438  0.60681492  0.68247292    -0.88300
H759        H  0.24041943  0.59337487  0.71382165    -0.06600
H760        H  0.29303791  0.57857748  0.61642732    -0.06700
C761        C  0.24932751  0.61838959  0.70106609     0.86800
C762        C  0.27938882  0.70586506  0.63784962     0.87400
C763        C  0.28250846  0.58691686  0.63139822     0.87400
H764        H  0.39839368  0.62778075  0.70696191    -0.06700
O765        O  0.39965825  0.72883210  0.70100905    -0.75800
Mg766      Mg  0.26465993  0.55084240  0.67693064     1.58000
H767        H  0.35793197  0.74961986  0.71538427    -0.06700
C768        C  0.16431034  0.66523815  0.68447249     0.92400
O769        O  0.15634318  0.54384365  0.66003606    -0.83000
C770        C  0.15723982  0.50639173  0.65997264     0.92500
O771        O  0.37098653  0.83168622  0.65859313    -0.83000
Mg772      Mg  0.43897182  0.70919631  0.67624060     1.58200
O773        O  0.16896451  0.62998986  0.68176508    -0.81300
O774        O  0.45077533  0.61935025  0.64554398    -0.83000
C775        C  0.05984814  0.67865365  0.70035890    -0.02100
C776        C  0.02455277  0.64707272  0.68612240     0.07600
C777        C  0.03492036  0.61947204  0.67252274    -0.02200
C778        C  0.08074356  0.62642478  0.67164940    -0.02200
C779        C  0.11579795  0.65763890  0.68596969     0.07700
C780        C  0.10437727  0.68222821  0.70089210    -0.02400
Br781      Br  0.14951287  0.72056779  0.72233561    -0.00900
Br782      Br  0.05062386  0.72161524  0.71760994    -0.01000
Br783      Br  0.09588069  0.59652810  0.64892702    -0.01000
Br784      Br  0.98630261  0.57133527  0.65504156    -0.01000
C785        C  0.54539459  0.63286212  0.65827782    -0.02100
C786        C  0.53518919  0.66289454  0.64654379     0.07600
C787        C  0.57205126  0.70153990  0.63563096    -0.02200
C788        C  0.61863515  0.71032810  0.63666883    -0.02200
C789        C  0.62897090  0.68191135  0.64944756     0.07700
C790        C  0.59207394  0.64264804  0.65990928    -0.02400
Br791      Br  0.60523548  0.60105241  0.67614110    -0.00900
Br792      Br  0.49622424  0.57965107  0.67340712    -0.01000
Br793      Br  0.66845976  0.76187422  0.62109215    -0.01000
Br794      Br  0.55874530  0.74250132  0.61918030    -0.01000
C795        C  0.74173873  0.73915247  0.77071691    -0.02100
C796        C  0.71831860  0.72066675  0.75102409     0.07600
C797        C  0.67698434  0.72301011  0.74674310    -0.02200
C798        C  0.66443818  0.74914677  0.76015060    -0.02200
C799        C  0.69231999  0.77307587  0.77779971     0.07700
C800        C  0.72964310  0.76642555  0.78363752    -0.02400
Br801      Br  0.76474301  0.79574427  0.80921183    -0.00900
Br802      Br  0.78851158  0.72539695  0.78108436    -0.01000
Br803      Br  0.60889580  0.75305336  0.75439568    -0.01000
Br804      Br  0.63595962  0.69166268  0.72278349    -0.01000
C805        C  0.63720841  0.56242814  0.58440743    -0.02100
C806        C  0.68323925  0.57309603  0.57829436     0.07600
C807        C  0.69153414  0.56551457  0.55683370    -0.02200
C808        C  0.65361929  0.54273973  0.54249925    -0.02200
C809        C  0.60798661  0.53162040  0.54885857     0.07700
C810        C  0.60056965  0.54386365  0.56943097    -0.02400
Br811      Br  0.53978792  0.53570061  0.57685756    -0.00900
Br812      Br  0.62223964  0.57049602  0.61352088    -0.01000
Br813      Br  0.66393434  0.52620923  0.51423180    -0.01000
Br814      Br  0.75483088  0.59047358  0.54622407    -0.01000
C815        C  0.89106703  0.56570524  0.56816384    -0.02100
C816        C  0.92383923  0.60139381  0.58206843     0.07600
C817        C  0.97170226  0.61281852  0.58094711    -0.02200
C818        C  0.98487450  0.58561234  0.56855240    -0.02200
C819        C  0.95168407  0.54915464  0.55572127     0.07700
C820        C  0.90550979  0.54092570  0.55475182    -0.02400
Br821      Br  0.86184439  0.49475614  0.53495323    -0.00900
Br822      Br  0.82518170  0.54678772  0.56766826    -0.01000
Br823      Br  0.04842318  0.59713219  0.56954440    -0.01000
Br824      Br  0.02083174  0.66683322  0.59542723    -0.01000
C825        C  0.58892761  0.94115205  0.65237477    -0.02100
C826        C  0.62879606  0.94919829  0.66417860     0.07600
C827        C  0.62469065  0.91504594  0.67892170    -0.02200
C828        C  0.58103642  0.87394755  0.68218558    -0.02200
C829        C  0.54128461  0.86596235  0.67034054     0.07700
C830        C  0.54603057  0.89904903  0.65483421    -0.02400
Br831      Br  0.49516910  0.88589920  0.63545841    -0.00900
Br832      Br  0.59069661  0.98895385  0.63408443    -0.01000
Br833      Br  0.57608603  0.82938075  0.70339959    -0.01000
Br834      Br  0.67890841  0.92367942  0.69463916    -0.01000
C835        C  0.04143092  0.41338087  0.68293383    -0.02100
C836        C  0.03046329  0.37648355  0.66879386     0.07600
C837        C  0.06136776  0.38200470  0.65181765    -0.02200
C838        C  0.10150938  0.42554541  0.64802248    -0.02200
C839        C  0.11279963  0.46238233  0.66225284     0.07700
C840        C  0.08323645  0.45607149  0.67998592    -0.02400
Br841      Br  0.10089884  0.50468257  0.70106687    -0.00900
Br842      Br  0.99887615  0.40578168  0.70603383    -0.01000
Br843      Br  0.13956306  0.43534811  0.62280621    -0.01000
Br844      Br  0.05117290  0.32902841  0.63492143    -0.01000
C845        C  0.77317943  0.99814142  0.76693442    -0.02100
C846        C  0.74316067  0.01176617  0.75710572     0.07600
C847        C  0.69394552  0.98383457  0.76118603    -0.02200
C848        C  0.67519291  0.94104019  0.77243220    -0.02200
C849        C  0.70523128  0.92814893  0.78239784     0.07700
C850        C  0.75436485  0.95843778  0.78045434    -0.02400
Br851      Br  0.79620943  0.94471050  0.79616141    -0.00900
Br852      Br  0.83960012  0.02908375  0.76020212    -0.01000
Br853      Br  0.60810364  0.89811443  0.77239434    -0.01000
Br854      Br  0.65101663  0.00359859  0.75175811    -0.01000
C855        C  0.64427946  0.06437500  0.57794759    -0.02100
C856        C  0.66808364  0.11169740  0.58455447     0.07600
C857        C  0.65387909  0.14201127  0.57595666    -0.02200
C858        C  0.61670186  0.12515112  0.56108548    -0.02200
C859        C  0.59163547  0.07741152  0.55547112     0.07700
C860        C  0.60467093  0.04691949  0.56462278    -0.02400
Br861      Br  0.56672050  0.98045760  0.55989310    -0.00900
Br862      Br  0.66785565  0.02345942  0.58527654    -0.01000
Br863      Br  0.59999835  0.16770042  0.54838840    -0.01000
Br864      Br  0.68333719  0.20625808  0.58501075    -0.01000
C865        C  0.89670864  0.36309597  0.55311453    -0.02100
C866        C  0.94493539  0.39657947  0.55161312     0.07600
C867        C  0.97782492  0.38675221  0.56084305    -0.02200
C868        C  0.96243235  0.34497533  0.57250361    -0.02200
C869        C  0.91366726  0.31377266  0.57647235     0.07700
C870        C  0.88091182  0.32214993  0.56547325    -0.02400
Br871      Br  0.81381424  0.27951020  0.56724912    -0.00900
Br872      Br  0.85207551  0.37425602  0.53832320    -0.01000
Br873      Br  0.00898857  0.33003966  0.58173955    -0.01000
Br874      Br  0.04421642  0.43193155  0.55841472    -0.01000
C875        C  0.00717484  0.81980091  0.78568017    -0.02100
C876        C  0.03705765  0.80146593  0.78881539     0.07600
C877        C  0.02639404  0.75942022  0.77867903    -0.02200
C878        C  0.98644405  0.73648026  0.76561013    -0.02200
C879        C  0.96233743  0.75962903  0.75912064     0.07700
C880        C  0.97244150  0.80132182  0.76971821    -0.02400
Br881      Br  0.94279393  0.83626758  0.76154324    -0.00900
Br882      Br  0.01451626  0.87078376  0.80323708    -0.01000
Br883      Br  0.96290429  0.67185840  0.75835558    -0.01000
Br884      Br  0.06834372  0.73504017  0.78092229    -0.01000
C885        C  0.03838431  0.20908980  0.77838200    -0.02100
C886        C  0.06629588  0.25767260  0.78207198     0.07600
C887        C  0.05544022  0.28803442  0.77112771    -0.02200
C888        C  0.01635252  0.26994559  0.75729964    -0.02200
C889        C  0.99081716  0.22159435  0.75217484     0.07700
C890        C  0.00229152  0.19136211  0.76297858    -0.02400
Br891      Br  0.97203741  0.12605308  0.75561879    -0.00900
Br892      Br  0.05100061  0.16646370  0.79397000    -0.01000
Br893      Br  0.99714262  0.31214597  0.74645928    -0.01000
Br894      Br  0.09647939  0.35476215  0.77344416    -0.01000
C895        C  0.34659591  0.39869331  0.67351202    -0.02100
C896        C  0.31634801  0.36468287  0.65868740     0.07600
C897        C  0.28636285  0.37313088  0.64599157    -0.02200
C898        C  0.28603009  0.41506443  0.64843138    -0.02200
C899        C  0.31508923  0.44823368  0.66381632     0.07700
C900        C  0.34517673  0.43985585  0.67638246    -0.02400
Br901      Br  0.38337706  0.48421599  0.69799829    -0.00900
Br902      Br  0.39304631  0.39095530  0.68868487    -0.01000
Br903      Br  0.24750674  0.42800066  0.62987614    -0.01000
Br904      Br  0.24542421  0.32718523  0.62549640    -0.01000
C905        C  0.36296116  0.95313057  0.67780771    -0.02100
C906        C  0.32945877  0.95764970  0.66590917     0.07600
C907        C  0.29681288  0.92041121  0.65308811    -0.02200
C908        C  0.29877011  0.87928902  0.65156838    -0.02200
C909        C  0.33286558  0.87504616  0.66316262     0.07700
C910        C  0.36475213  0.91188899  0.67641557    -0.02400
Br911      Br  0.40919685  0.90501893  0.69375448    -0.00900
Br912      Br  0.40634596  0.00334549  0.69601162    -0.01000
Br913      Br  0.25526719  0.82920482  0.63331802    -0.01000
Br914      Br  0.24694986  0.92425260  0.63890617    -0.01000
C915        C  0.17113867  0.97890256  0.78117293    -0.02100
C916        C  0.18717684  0.94732546  0.78403593     0.07600
C917        C  0.22333994  0.95044325  0.77081542    -0.02200
C918        C  0.24222040  0.98395384  0.75431994    -0.02200
C919        C  0.22196311  0.01191400  0.74964570     0.07700
C920        C  0.18625192  0.00915844  0.76343396    -0.02400
Br921      Br  0.15358172  0.04241467  0.75738872    -0.00900
Br922      Br  0.12749011  0.97973021  0.80164427    -0.01000
Br923      Br  0.29689101  0.99141903  0.73902061    -0.01000
Br924      Br  0.24526571  0.90693614  0.77460975    -0.01000
C925        C  0.27940036  0.29486037  0.75499122    -0.02100
C926        C  0.27568943  0.25025961  0.75488114     0.07600
C927        C  0.25068817  0.21918625  0.77207708    -0.02200
C928        C  0.22267458  0.22860060  0.78607915    -0.02200
C929        C  0.22114669  0.26986059  0.78375166     0.07700
C930        C  0.25157130  0.30399378  0.76911610    -0.02400
Br931      Br  0.25331970  0.36299522  0.76800804    -0.00900
Br932      Br  0.32241780  0.34510137  0.73647237    -0.01000
Br933      Br  0.18509742  0.18452904  0.80812102    -0.01000
Br934      Br  0.25573703  0.16466803  0.77759212    -0.01000
C935        C  0.39736723  0.09644653  0.55289627    -0.02100
C936        C  0.37254178  0.06734320  0.57062445     0.07600
C937        C  0.37113023  0.02379162  0.57249592    -0.02200
C938        C  0.39981659  0.01397718  0.55922183    -0.02200
C939        C  0.43045499  0.04710295  0.54430787     0.07700
C940        C  0.42735682  0.08704760  0.54031937    -0.02400
Br941      Br  0.46647675  0.13011789  0.51828848    -0.00900
Br942      Br  0.39048579  0.14894676  0.54517013    -0.01000
Br943      Br  0.39958156  0.95594834  0.56202300    -0.01000
Br944      Br  0.33261866  0.97693455  0.59349848    -0.01000
C945        C  0.42319882  0.37229988  0.55258954    -0.02100
C946        C  0.46374865  0.38062355  0.54114240     0.07000
C947        C  0.48106647  0.34997114  0.54398051    -0.02200
C948        C  0.46358107  0.31672086  0.56066719    -0.02200
C949        C  0.42440317  0.30992881  0.57308406     0.07700
C950        C  0.40201012  0.33535044  0.56747757    -0.02400
Br951      Br  0.34084911  0.31866424  0.57908549    -0.00900
Br952      Br  0.39831042  0.41344166  0.54922102    -0.01000
Br953      Br  0.49687641  0.28442779  0.56725209    -0.01000
Br954      Br  0.52967134  0.35470479  0.52495943    -0.01000
C955        C  0.94284883  0.24299505  0.99716022    -0.02100
C956        C  0.97710144  0.28225677  0.98578611     0.07600
C957        C  0.01257829  0.27933503  0.97420707    -0.02200
C958        C  0.01340412  0.23743848  0.97389017    -0.02200
C959        C  0.98165068  0.19941245  0.98676210     0.07700
C960        C  0.94579216  0.20219957  0.99820352    -0.02400
Br961      Br  0.90271759  0.15238928  0.01701070    -0.00900
Br962      Br  0.89195887  0.24528711  0.01153843    -0.01000
Br963      Br  0.05749831  0.23214572  0.95521783    -0.01000
Br964      Br  0.06403491  0.33408220  0.96088806    -0.01000
C965        C  0.99072527  0.72527595  0.99626556    -0.02100
C966        C  0.01885285  0.71839188  0.01108353     0.07600
C967        C  0.04035857  0.75100741  0.02785686    -0.02200
C968        C  0.03294345  0.78923671  0.02988709    -0.02200
C969        C  0.00720026  0.79718524  0.01426313     0.07700
C970        C  0.98760661  0.76585045  0.99706686    -0.02400
Br971      Br  0.95884756  0.77990143  0.97366822    -0.00900
Br972      Br  0.95140937  0.67692637  0.97629753    -0.01000
Br973      Br  0.05560737  0.82918433  0.05457709    -0.01000
Br974      Br  0.08139673  0.74465489  0.04758572    -0.01000
C975        C  0.10358068  0.66364890  0.89744593    -0.02100
C976        C  0.06493911  0.65561519  0.91075211     0.07600
C977        C  0.04872598  0.68787658  0.90961885    -0.02200
C978        C  0.07502931  0.73050482  0.89859771    -0.02200
C979        C  0.11512457  0.73960048  0.88664649     0.07700
C980        C  0.12824609  0.70539136  0.88547602    -0.02400
Br981      Br  0.18141190  0.71681956  0.86780100    -0.00900
Br982      Br  0.12455663  0.61902614  0.89525853    -0.01000
Br983      Br  0.05765882  0.77784450  0.90087987    -0.01000
Br984      Br  0.98878535  0.67329557  0.92182777    -0.01000
C985        C  0.06927731  0.39314964  0.90584882    -0.02100
C986        C  0.09485735  0.44190975  0.91034710     0.07600
C987        C  0.13841511  0.46964280  0.89964150    -0.02200
C988        C  0.15581446  0.44893194  0.88517902    -0.02200
C989        C  0.13286069  0.39986308  0.88289015     0.07700
C990        C  0.08984611  0.37215423  0.89368238    -0.02400
Br991      Br  0.06137311  0.30509008  0.89377143    -0.00900
Br992      Br  0.00464904  0.35407244  0.91514390    -0.01000
Br993      Br  0.21255054  0.48774752  0.86893625    -0.01000
Br994      Br  0.17720274  0.53512790  0.90607603    -0.01000
C995        C  0.23810386  0.29831935  0.01357962    -0.02100
C996        C  0.27794394  0.30171397  0.02335129     0.07600
C997        C  0.27327859  0.26453073  0.03606281    -0.02200
C998        C  0.22943924  0.22331975  0.03806899    -0.02200
C999        C  0.19081229  0.21708437  0.02578398     0.07700
C1000       C  0.19469082  0.25611022  0.01450540    -0.02400
Br1001     Br  0.14256307  0.25333037  0.99926082    -0.00900
Br1002     Br  0.24351079  0.35182316  0.99870179    -0.01000
Br1003     Br  0.22280819  0.17621168  0.05824354    -0.01000
Br1004     Br  0.32781139  0.26701588  0.04873851    -0.01000
C1005       C  0.71406682  0.72916176  0.99481273    -0.02100
C1006       C  0.71468013  0.69277404  0.98346188     0.07600
C1007       C  0.75453377  0.70240185  0.97106831    -0.02200
C1008       C  0.79422999  0.74800413  0.97068423    -0.02200
C1009       C  0.79431653  0.78378964  0.98290241     0.07700
C1010       C  0.75379380  0.77420783  0.99477464    -0.02400
Br1011     Br  0.75307423  0.82207977  0.01209653    -0.00900
Br1012     Br  0.65780044  0.71770784  0.00999726    -0.01000
Br1013     Br  0.84749502  0.76216306  0.95268442    -0.01000
Br1014     Br  0.75524755  0.65297046  0.95528389    -0.01000
C1015       C  0.59785825  0.69773331  0.88948630    -0.02100
C1016       C  0.56259414  0.70184798  0.87893433     0.07600
C1017       C  0.51509867  0.66728781  0.88218502    -0.02200
C1018       C  0.50239949  0.63181446  0.89765695    -0.02200
C1019       C  0.53776262  0.62856790  0.90915052     0.07700
C1020       C  0.58577788  0.66022832  0.90362734    -0.02400
Br1021     Br  0.63648562  0.65241231  0.91416268    -0.00900
Br1022     Br  0.66314805  0.74533579  0.88553138    -0.01000
Br1023     Br  0.43608354  0.59030990  0.90331275    -0.01000
Br1024     Br  0.46735627  0.66899425  0.86519179    -0.01000
C1025       C  0.31143869  0.40887888  0.88534789    -0.02100
C1026       C  0.26557145  0.37199649  0.88937067     0.07600
C1027       C  0.25750366  0.33952142  0.90558374    -0.02200
C1028       C  0.29401371  0.34723248  0.91966482    -0.02200
C1029       C  0.33997460  0.38685605  0.91677588     0.07700
C1030       C  0.34894948  0.41432926  0.89803229    -0.02400
Br1031     Br  0.41242517  0.45764530  0.88846051    -0.00900
Br1032     Br  0.32240382  0.45311595  0.86289958    -0.01000
Br1033     Br  0.27861811  0.30284134  0.94267447    -0.01000
Br1034     Br  0.19559550  0.28480930  0.90851709    -0.01000
C1035       C  0.74344508  0.96775657  0.00602042    -0.02100
C1036       C  0.78307886  0.99209146  0.99273994     0.07600
C1037       C  0.78260608  0.01971305  0.97569988    -0.02200
C1038       C  0.74303261  0.02436900  0.97248198    -0.02200
C1039       C  0.70471317  0.00269699  0.98676440     0.07700
C1040       C  0.70444058  0.97345990  0.00320010    -0.02400
Br1041     Br  0.65011409  0.94041621  0.02170556    -0.00900
Br1042     Br  0.74343906  0.92826862  0.02853678    -0.01000
Br1043     Br  0.74207484  0.06159683  0.94908539    -0.01000
Br1044     Br  0.83644879  0.05135819  0.95677329    -0.01000
C1045       C  0.25146288  0.04640747  0.99423434    -0.02100
C1046       C  0.21249160  0.01315951  0.00616865     0.07600
C1047       C  0.21670015  0.98082206  0.01923617    -0.02200
C1048       C  0.25899327  0.98029270  0.01961150    -0.02200
C1049       C  0.29734291  0.01235035  0.00710770     0.07700
C1050       C  0.29382412  0.04583121  0.99460571    -0.02400
Br1051     Br  0.34731558  0.09146182  0.97816720    -0.00900
Br1052     Br  0.24641667  0.09155622  0.97683831    -0.01000
Br1053     Br  0.26363065  0.93407914  0.03634263    -0.01000
Br1054     Br  0.16504097  0.93810291  0.03735662    -0.01000
C1055       C  0.29850675  0.94786551  0.91560522    -0.02100
C1056       C  0.34120822  0.94772530  0.91168978     0.07600
C1057       C  0.34401420  0.92441350  0.89312763    -0.02200
C1058       C  0.30380312  0.89761547  0.88042855    -0.02200
C1059       C  0.26076288  0.89452188  0.88571851     0.07700
C1060       C  0.25872931  0.92105632  0.90274214    -0.02400
Br1061     Br  0.19994224  0.91874094  0.90885608    -0.00900
Br1062     Br  0.29119447  0.98215071  0.93894853    -0.01000
Br1063     Br  0.30682349  0.86351974  0.85605594    -0.01000
Br1064     Br  0.40275819  0.92935411  0.88435012    -0.01000
C1065       C  0.49766843  0.85184255  0.90042983    -0.02100
C1066       C  0.53158561  0.89153204  0.91171870     0.07600
C1067       C  0.57984308  0.91146943  0.90616601    -0.02200
C1068       C  0.59436137  0.88806256  0.89216706    -0.02200
C1069       C  0.56061067  0.84819358  0.88119116     0.07700
C1070       C  0.51229259  0.83170216  0.88456133    -0.02400
Br1071     Br  0.46603495  0.78065893  0.86758808    -0.00900
Br1072     Br  0.43136655  0.82233625  0.90726344    -0.01000
Br1073     Br  0.66060090  0.90885682  0.88950193    -0.01000
Br1074     Br  0.62674290  0.97253583  0.91631639    -0.01000
C1075       C  0.90500830  0.61665926  0.10761947    -0.02100
C1076       C  0.86098984  0.58550523  0.11694948     0.07600
C1077       C  0.83895478  0.53756203  0.11191162    -0.02200
C1078       C  0.85898292  0.52126741  0.09661158    -0.02200
C1079       C  0.90275945  0.55255525  0.08681718     0.07700
C1080       C  0.92637618  0.60022933  0.09314489    -0.02400
Br1081     Br  0.98873829  0.64425145  0.08250551    -0.00900
Br1082     Br  0.93480851  0.68275663  0.11341496    -0.01000
Br1083     Br  0.82326952  0.45680785  0.08784596    -0.01000
Br1084     Br  0.77980051  0.49425550  0.12554917    -0.01000
C1085       C  0.73399958  0.64311780  0.09829268    -0.02100
C1086       C  0.72622124  0.61000476  0.11409152     0.07600
C1087       C  0.68063535  0.57243696  0.11793829    -0.02200
C1088       C  0.64323010  0.56594885  0.10486748    -0.02200
C1089       C  0.65211882  0.59546964  0.08680680     0.07700
C1090       C  0.69697632  0.63672358  0.08499214    -0.02400
Br1091     Br  0.70909583  0.68615019  0.06511035    -0.00900
Br1092     Br  0.79650082  0.69636020  0.09440015    -0.01000
Br1093     Br  0.58025968  0.51768386  0.11294579    -0.01000
Br1094     Br  0.67026473  0.52852429  0.14051510    -0.01000
C1095       C  0.68671544  0.07320880  0.31417159    -0.02100
C1096       C  0.65333426  0.03502658  0.32658610     0.07600
C1097       C  0.62344899  0.04137718  0.34080161    -0.02200
C1098       C  0.62850278  0.08591907  0.34327025    -0.02200
C1099       C  0.66199424  0.12382029  0.33083918     0.07700
C1100       C  0.68981328  0.11680909  0.31578084    -0.02400
Br1101     Br  0.73169382  0.16683636  0.29673610    -0.00900
Br1102     Br  0.73243175  0.06829157  0.29655709    -0.01000
Br1103     Br  0.59184760  0.09562951  0.36468471    -0.01000
Br1104     Br  0.57513758  0.98904167  0.35671750    -0.01000
C1105       C  0.66640486  0.56659148  0.32619760    -0.02100
C1106       C  0.68647967  0.55292594  0.34235432     0.07600
C1107       C  0.71453345  0.58558790  0.35821223    -0.02200
C1108       C  0.72114914  0.63097292  0.35815907    -0.02200
C1109       C  0.69843354  0.64355535  0.34280902     0.07700
C1110       C  0.67140748  0.61120068  0.32667282    -0.02400
Br1111     Br  0.63816227  0.62611147  0.30575524    -0.00900
Br1112     Br  0.63373068  0.52495097  0.30270913    -0.01000
Br1113     Br  0.76309530  0.67655634  0.37852742    -0.01000
Br1114     Br  0.74213663  0.56798518  0.38085787    -0.01000
C1115       C  0.61285890  0.91639730  0.44409058    -0.02100
C1116       C  0.63690148  0.94359976  0.42574400     0.07600
C1117       C  0.63976371  0.98775518  0.42333679    -0.02200
C1118       C  0.61190215  0.99926251  0.43629030    -0.02200
C1119       C  0.58222704  0.96815151  0.45207831     0.07700
C1120       C  0.58485869  0.92822493  0.45683489    -0.02400
Br1121     Br  0.54732593  0.88818784  0.48006558    -0.00900
Br1122     Br  0.61782279  0.86312659  0.45246612    -0.01000
Br1123     Br  0.61157454  0.05660938  0.43172312    -0.01000
Br1124     Br  0.68049203  0.03379481  0.40243992    -0.01000
C1125       C  0.54932777  0.68783316  0.43715611    -0.02100
C1126       C  0.59086352  0.69781932  0.42586828     0.07600
C1127       C  0.61263672  0.67135499  0.43055620    -0.02200
C1128       C  0.58991274  0.63182244  0.44385901    -0.02200
C1129       C  0.54750362  0.62077591  0.45431401     0.07700
C1130       C  0.52875162  0.65037202  0.45178809    -0.02400
Br1131     Br  0.47256950  0.63725892  0.46749445    -0.00900
Br1132     Br  0.51718337  0.72174104  0.43151781    -0.01000
Br1133     Br  0.61465920  0.59018630  0.44575806    -0.01000
Br1134     Br  0.67429029  0.68883065  0.41926320    -0.01000
C1135       C  0.80181368  0.76644717  0.22458294    -0.02100
C1136       C  0.78167284  0.71901673  0.21901844     0.07600
C1137       C  0.73561637  0.68674281  0.22631037    -0.02200
C1138       C  0.71052954  0.70197247  0.23916166    -0.02200
C1139       C  0.73271636  0.74851729  0.24650204     0.07700
C1140       C  0.77874177  0.78056028  0.23915599    -0.02400
Br1141     Br  0.81389572  0.84218974  0.25133961    -0.00900
Br1142     Br  0.86199336  0.81235458  0.21259986    -0.01000
Br1143     Br  0.64570172  0.65905274  0.24665031    -0.01000
Br1144     Br  0.70793892  0.62105516  0.22024906    -0.01000
C1145       C  0.41319655  0.13541640  0.32354029    -0.02100
C1146       C  0.45485551  0.13271723  0.32163377     0.07600
C1147       C  0.45026648  0.08777823  0.32074061    -0.02200
C1148       C  0.40591115  0.04741618  0.32373235    -0.02200
C1149       C  0.36588234  0.05097760  0.32789590     0.07700
C1150       C  0.36914891  0.09469679  0.32710023    -0.02400
Br1151     Br  0.31324380  0.09853238  0.33163109    -0.00900
Br1152     Br  0.41494457  0.19414112  0.32035931    -0.01000
Br1153     Br  0.39941771  0.98622936  0.32211591    -0.01000
Br1154     Br  0.50359653  0.07914704  0.31633567    -0.01000
C1155       C  0.89594861  0.58498202  0.34291450    -0.02100
C1156       C  0.88988961  0.54130595  0.34912967     0.07600
C1157       C  0.93016727  0.53696665  0.35172428    -0.02200
C1158       C  0.97516103  0.57404198  0.34598182    -0.02200
C1159       C  0.98045010  0.61623111  0.33831921     0.07700
C1160       C  0.94125405  0.62255188  0.33824844    -0.02400
Br1161     Br  0.95003954  0.68383564  0.33321594    -0.00900
Br1162     Br  0.84272401  0.59365654  0.33894630    -0.01000
Br1163     Br  0.02937045  0.56659869  0.34804047    -0.01000
Br1164     Br  0.92405019  0.48049561  0.36355017    -0.01000
C1165       C  0.05593562  0.66455140  0.42985046    -0.02100
C1166       C  0.10448264  0.69570191  0.42546191     0.07600
C1167       C  0.13815652  0.68989685  0.43708805    -0.02200
C1168       C  0.12333822  0.65113983  0.45082918    -0.02200
C1169       C  0.07528654  0.61738116  0.45292290     0.07700
C1170       C  0.04158486  0.62494092  0.44290526    -0.02400
Br1171     Br  0.97548789  0.57905060  0.44581957    -0.00900
Br1172     Br  0.00804900  0.67554509  0.41835194    -0.01000
Br1173     Br  0.16899960  0.64283822  0.46639092    -0.01000
Br1174     Br  0.20508132  0.73220784  0.43370715    -0.01000
C1175       C  0.40903550  0.96966161  0.43117106    -0.02100
C1176       C  0.42222527  0.93954775  0.44062982     0.07600
C1177       C  0.39846463  0.89198163  0.43476715    -0.02200
C1178       C  0.36189429  0.87474451  0.41965986    -0.02200
C1179       C  0.34597962  0.90399369  0.41149913     0.07700
C1180       C  0.36987248  0.95175223  0.41750718    -0.02400
Br1181     Br  0.34855981  0.99336798  0.40814356    -0.00900
Br1182     Br  0.44612747  0.03614138  0.43608403    -0.01000
Br1183     Br  0.33688404  0.81203163  0.40896600    -0.01000
Br1184     Br  0.41576849  0.84995022  0.44756057    -0.01000
C1185       C  0.00940942  0.77053498  0.22723868    -0.02100
C1186       C  0.00688861  0.74985028  0.24750784     0.07600
C1187       C  0.96501425  0.70660496  0.25238160    -0.02200
C1188       C  0.92602655  0.68809921  0.23857316    -0.02200
C1189       C  0.92742725  0.71195447  0.21990384     0.07700
C1190       C  0.96954401  0.75230002  0.21387313    -0.02400
Br1191     Br  0.97192873  0.78298716  0.18728879    -0.00900
Br1192     Br  0.06770310  0.82127056  0.21623234    -0.01000
Br1193     Br  0.86944934  0.62949656  0.24504175    -0.01000
Br1194     Br  0.95804744  0.67042589  0.27767264    -0.01000
C1195       C  0.88194926  0.30818363  0.11557649    -0.02100
C1196       C  0.89270550  0.27232706  0.11491100     0.07600
C1197       C  0.93164562  0.27863944  0.10279244    -0.02200
C1198       C  0.95779159  0.31920829  0.09028162    -0.02200
C1199       C  0.94280026  0.35229797  0.08826491     0.07700
C1200       C  0.90629082  0.34778749  0.10222836    -0.02400
Br1201     Br  0.88692458  0.39375091  0.10325806    -0.00900
Br1202     Br  0.83262384  0.30191639  0.13461785    -0.01000
Br1203     Br  0.01524568  0.32937160  0.07681703    -0.01000
Br1204     Br  0.94732448  0.22998772  0.10229602    -0.01000
C1205       C  0.70076777  0.11027388  0.11523440    -0.02100
C1206       C  0.74616222  0.11996071  0.10918036     0.07600
C1207       C  0.75292266  0.10586927  0.08888593    -0.02200
C1208       C  0.71606481  0.08656681  0.07392671    -0.02200
C1209       C  0.67000262  0.07656080  0.07980629     0.07700
C1210       C  0.66260194  0.08750636  0.10091040    -0.02400
Br1211     Br  0.60044590  0.07152142  0.11062789    -0.00900
Br1212     Br  0.69143165  0.13010611  0.14293014    -0.01000
Br1213     Br  0.73221261  0.08036343  0.04473772    -0.01000
Br1214     Br  0.81372864  0.11393707  0.08151682    -0.01000
C1215       C  0.82131978  0.01818170  0.21556220    -0.02100
C1216       C  0.80366138  0.04787486  0.21096663     0.07600
C1217       C  0.76367467  0.04196560  0.22210022    -0.02200
C1218       C  0.74163183  0.00662070  0.23771499    -0.02200
C1219       C  0.76250356  0.98014417  0.24404311     0.07700
C1220       C  0.80312449  0.98693193  0.23288637    -0.02400
Br1221     Br  0.83903761  0.95943379  0.24271779    -0.00900
Br1222     Br  0.87309170  0.02296479  0.19876243    -0.01000
Br1223     Br  0.68239862  0.99497333  0.24972073    -0.01000
Br1224     Br  0.74139197  0.08491891  0.21733608    -0.01000
C1225       C  0.41029469  0.33426815  0.10072717    -0.02100
C1226       C  0.45804224  0.36241020  0.09416960     0.07600
C1227       C  0.49281223  0.35700291  0.10488715    -0.02200
C1228       C  0.47938850  0.32285034  0.12095179    -0.02200
C1229       C  0.43145138  0.29024873  0.12465437     0.07700
C1230       C  0.39686587  0.29602706  0.11442042    -0.02400
Br1231     Br  0.33105039  0.24889786  0.11705641    -0.00900
Br1232     Br  0.36273275  0.34882813  0.09245373    -0.01000
Br1233     Br  0.52665773  0.31876213  0.13731514    -0.01000
Br1234     Br  0.55860327  0.39241357  0.09688422    -0.01000
C1235       C  0.41671157  0.09453773  0.08814338    -0.02100
C1236       C  0.46580174  0.11274189  0.08489404     0.07600
C1237       C  0.49765020  0.14436475  0.10022008    -0.02200
C1238       C  0.48066041  0.15925675  0.11742206    -0.02200
C1239       C  0.43263368  0.14530450  0.11880544     0.07700
C1240       C  0.40074578  0.11294688  0.10415712    -0.02400
Br1241     Br  0.33558618  0.09715065  0.10476907    -0.00900
Br1242     Br  0.36955572  0.04219483  0.07207052    -0.01000
Br1243     Br  0.52345144  0.20110336  0.13871712    -0.01000
Br1244     Br  0.56493422  0.17049324  0.09765841    -0.01000
C1245       C  0.31425383  0.04540902  0.22516146    -0.02100
C1246       C  0.28214232  0.05469829  0.21470620     0.07600
C1247       C  0.23386482  0.02076922  0.21512390    -0.02200
C1248       C  0.21715983  0.97971516  0.22745776    -0.02200
C1249       C  0.24898497  0.97138777  0.23913588     0.07700
C1250       C  0.29808092  0.00325426  0.23647326    -0.02400
Br1251     Br  0.34440943  0.99031439  0.24835492    -0.00900
Br1252     Br  0.38030866  0.09249184  0.22579423    -0.01000
Br1253     Br  0.15012266  0.93807583  0.22937050    -0.01000
Br1254     Br  0.19017569  0.03208971  0.19955651    -0.01000
C1255       C  0.37678969  0.29321792  0.36582326    -0.02100
C1256       C  0.36851001  0.31683117  0.34928594     0.07600
C1257       C  0.40626683  0.34787291  0.33591343    -0.02200
C1258       C  0.45170869  0.35493456  0.33897199    -0.02200
C1259       C  0.46018577  0.33142918  0.35561990     0.07700
C1260       C  0.42248783  0.30086460  0.36914461    -0.02400
Br1261     Br  0.43360961  0.27047472  0.39273050    -0.00900
Br1262     Br  0.32478789  0.24808513  0.38303818    -0.01000
Br1263     Br  0.50143190  0.39494845  0.31921845    -0.01000
Br1264     Br  0.39656833  0.38227280  0.31355784    -0.01000
C1265       C  0.89808755  0.32331894  0.33110415    -0.02100
C1266       C  0.88466584  0.34412047  0.31507701     0.07600
C1267       C  0.91799899  0.37202861  0.29922606    -0.02200
C1268       C  0.96426834  0.37952189  0.29960176    -0.02200
C1269       C  0.97762098  0.35900060  0.31574776     0.07700
C1270       C  0.94383978  0.33001983  0.33119612    -0.02400
Br1271     Br  0.95921682  0.29741479  0.35229987    -0.00900
Br1272     Br  0.85547592  0.28872680  0.35434598    -0.01000
Br1273     Br  0.01001869  0.41995678  0.27867455    -0.01000
Br1274     Br  0.90026389  0.39982732  0.27680750    -0.01000
C1275       C  0.05199507  0.43079921  0.40995087    -0.02100
C1276       C  0.08391801  0.41533717  0.41492810     0.07600
C1277       C  0.10110427  0.42127724  0.43607979    -0.02200
C1278       C  0.09114901  0.44691527  0.45114690    -0.02200
C1279       C  0.05975534  0.46251711  0.44598946     0.07700
C1280       C  0.03815307  0.45170115  0.42577884    -0.02400
Br1281     Br  0.98961868  0.46639729  0.41967518    -0.00900
Br1282     Br  0.03035650  0.42908701  0.38107422    -0.01000
Br1283     Br  0.12276993  0.46282165  0.47835578    -0.01000
Br1284     Br  0.13671942  0.39282398  0.44492161    -0.01000
C1285       C  0.32204702  0.44890497  0.43821633    -0.02100
C1286       C  0.32870960  0.44467617  0.41614292     0.07600
C1287       C  0.37348612  0.45432400  0.40876393    -0.02200
C1288       C  0.40993601  0.46531000  0.42329947    -0.02200
C1289       C  0.40391440  0.47151100  0.44516111     0.07700
C1290       C  0.35999468  0.46386411  0.45252074    -0.02400
Br1291     Br  0.35260554  0.47621606  0.48202531    -0.00900
Br1292     Br  0.26100888  0.43282770  0.44923513    -0.01000
Br1293     Br  0.46910059  0.47315778  0.41317552    -0.01000
Br1294     Br  0.38653173  0.45599193  0.37843937    -0.01000
C1295       C  0.02839657  0.21451927  0.22599328    -0.02100
C1296       C  0.02218747  0.23224644  0.24565883     0.07600
C1297       C  0.97902405  0.23129058  0.24940694    -0.02200
C1298       C  0.94412167  0.21466631  0.23360763    -0.02200
C1299       C  0.95001875  0.19585215  0.21451528     0.07700
C1300       C  0.99192837  0.19540881  0.21079854    -0.02400
Br1301     Br  0.99800969  0.16619744  0.18521799    -0.00900
Br1302     Br  0.08636737  0.21624835  0.21912629    -0.01000
Br1303     Br  0.88622963  0.21499370  0.23845129    -0.01000
Br1304     Br  0.96402312  0.24808517  0.27681283    -0.01000
C1305       C  0.25876564  0.22062172  0.21620734    -0.02100
C1306       C  0.29068450  0.20683146  0.22290154     0.07600
C1307       C  0.31225862  0.22125895  0.24296875    -0.02200
C1308       C  0.29885531  0.24547865  0.25716500    -0.02200
C1309       C  0.26570366  0.25859706  0.25076777     0.07700
C1310       C  0.24813779  0.24825622  0.22967277    -0.02400
Br1311     Br  0.21299895  0.27523751  0.21839298    -0.00900
Br1312     Br  0.22880209  0.20076348  0.18874307    -0.01000
Br1313     Br  0.32502956  0.25713884  0.28565010    -0.01000
Br1314     Br  0.36083394  0.20776853  0.25090098    -0.01000
loop_ 
_geom_bond_atom_site_label_1 
_geom_bond_atom_site_label_2 
_geom_bond_distance 
_geom_bond_site_symmetry_2 
_ccdc_geom_bond_type 
O1           Mg3   2.156       .  S
O1           Mg9   2.150       .  S
O1           C36   1.233       .  S
C2           O15   1.233       .  S
C2           O39   1.267       .  A
C2           H41   1.081       .  S
Mg3          O32   2.161       .  S
Mg3          O47   2.314       .  S
Mg3          O43   2.260       .  S
Mg3          O14   2.290       .  S
O4          Mg46   2.164       .  S
O4          Mg29   2.150       .  S
O4           C25   1.235       .  S
O5           C36   1.268       .  A
O5          Mg29   2.298       .  S
C6            O8   1.278       .  A
C6           O20   1.267       .  A
C6         C1286   1.488       .  S
O7           C35   1.272       .  A
O7           Mg9   2.309       .  S
O8          Mg40   2.331       .  S
Mg9          O15   2.158       .  S
Mg9          O23   2.287       .  S
Mg9          O11   2.255       .  S
C10          O48   1.268       .  A
C10          O16   1.273       .  A
C10        C1256   1.483       .  S
O11          C18   1.269       .  A
H12          C25   1.083       .  S
C13          O27   1.234       .  S
C13          O28   1.268       .  A
C13          H38   1.080       .  S
O14          C37   1.268       .  A
O15         Mg29   2.202       .  S
O16         Mg46   2.304       .  S
C17          O30   1.268       .  A
C17          O22   1.282       .  A
C17        C1309   1.500       .  S
C18          O45   1.277       .  A
C18        C1296   1.498       .  S
Mg19         O26   2.145       .  S
Mg19         O27   2.156       .  S
Mg19         O20   2.237       .  S
Mg19         O21   2.298       .  S
Mg19         O48   2.257       .  S
O21          C25   1.269       .  A
O22         Mg29   2.351       .  S
O23          C42   1.272       .  A
O24          C44   1.280       .  A
O24         Mg40   2.332       .  S
O26         Mg40   2.191       .  S
O26          C37   1.235       .  S
O27         Mg46   2.148       .  S
O28         Mg40   2.298       .  S
Mg29         O45   2.310       .  S
O30         Mg46   2.240       .  S
H31          C36   1.080       .  S
O32         Mg40   2.163       .  S
O32          C35   1.236       .  S
H33          C35   1.082       .  S
H34          C37   1.081       .  S
O39         Mg46   2.290       .  S
C42          O47   1.275       .  A
C42        C1269   1.491   1_455  S
O43          C44   1.272       .  A
C44        C1276   1.499       .  S
C49        C1246   1.497       .  S
C49          C50   1.403       .  A
C49          C54   1.419       .  A
C50          H69   1.085       .  S
C50          C51   1.403       .  A
C51        C1306   1.492       .  S
C51          C52   1.415       .  A
C52          C53   1.420       .  A
C52          C59   1.408       .  A
C53          C54   1.422       .  A
C53          C58   1.421       .  A
C54          C55   1.408       .  A
C55          H65   1.082       .  S
C55          C56   1.395       .  A
C56          H66   1.083       .  S
C56          C57   1.405       .  A
C57          C58   1.420       .  A
C57          C64   1.415       .  A
C58          C61   1.421       .  A
C59          H67   1.082       .  S
C59          C60   1.392       .  A
C60          H68   1.083       .  S
C60          C61   1.403       .  A
C61          C62   1.415       .  A
C62        C1229   1.485       .  S
C62          C63   1.392       .  A
C63          H70   1.086       .  S
C63          C64   1.391       .  A
C64        C1239   1.480       .  S
C71        C1299   1.483       .  S
C71          C72   1.390       .  A
C71          C76   1.414       .  A
C72          H91   1.086       .  S
C72          C73   1.394       .  A
C73        C1216   1.488       .  S
C73          C74   1.418       .  A
C74          C75   1.422       .  A
C74          C81   1.405       .  A
C75          C76   1.423       .  A
C75          C80   1.423       .  A
C76          C77   1.403       .  A
C77          H87   1.083       .  S
C77          C78   1.395       .  A
C78          H88   1.083       .  S
C78          C79   1.407       .  A
C79          C80   1.421       .  A
C79          C86   1.416       .  A
C80          C83   1.423       .  A
C81          H89   1.083       .  S
C81          C82   1.397       .  A
C82          H90   1.082       .  S
C82          C83   1.407       .  A
C83          C84   1.420       .  A
C84        C1206   1.498       .  S
C84          C85   1.404       .  A
C85          H92   1.085       .  S
C85          C86   1.401       .  A
C86        C1196   1.494       .  S
O93         Mg95   2.152       .  S
O93        Mg101   2.129       .  S
O93         C128   1.234       .  S
C94         O107   1.237       .  S
C94         O131   1.271       .  A
C94         H133   1.082       .  S
Mg95        O124   2.136       .  S
Mg95        O139   2.296       .  S
Mg95        O135   2.215       .  S
Mg95        O106   2.304       .  S
O96        Mg138   2.128       .  S
O96        Mg121   2.144       .  S
O96         C117   1.236       .  S
O97         C128   1.270       .  A
O97        Mg121   2.307       .  S
C98         O100   1.279       .  A
C98         O112   1.272       .  A
C98        C1186   1.517       .  S
O99         C127   1.277       .  A
O99        Mg101   2.329       .  S
O100       Mg132   2.325       .  S
Mg101       O107   2.140       .  S
Mg101       O115   2.266       .  S
Mg101       O103   2.311       .  S
C102        O140   1.272       .  A
C102        O108   1.265       .  A
C102       C1159   1.478   1_455  S
O103        C110   1.275       .  A
H104        C117   1.083       .  S
C105        O119   1.232       .  S
C105        O120   1.268       .  A
C105        H130   1.083       .  S
O106        C129   1.271       .  A
O107       Mg121   2.158       .  S
O108       Mg138   2.270       .  S
C109        O122   1.269       .  A
C109        O114   1.277       .  A
C109       C1166   1.506       .  S
C110        O137   1.275       .  A
C110       C1179   1.494       .  S
Mg111       O118   2.160       .  S
Mg111       O119   2.152       .  S
Mg111       O112   2.296       .  S
Mg111       O113   2.315       .  S
Mg111       O140   2.293       .  S
O113        C117   1.272       .  A
O114       Mg121   2.340       .  S
O115        C134   1.268   1_565  A
O116        C136   1.281       .  A
O116       Mg132   2.371       .  S
O118       Mg132   2.188       .  S
O118        C129   1.236       .  S
O119       Mg138   2.179       .  S
O120       Mg132   2.303       .  S
Mg121       O137   2.282       .  S
O122       Mg138   2.250       .  S
H123        C128   1.079       .  S
O124       Mg132   2.177       .  S
O124        C127   1.239       .  S
H125        C127   1.083       .  S
H126        C129   1.081       .  S
O131       Mg138   2.299       .  S
C134        O139   1.267   1_545  A
C134       C1149   1.475       .  S
O135        C136   1.264       .  A
C136       C1249   1.505       .  S
O141       Mg143   2.164       .  S
O141       Mg149   2.135       .  S
O141        C176   1.235       .  S
C142        O155   1.234       .  S
C142        O179   1.268       .  A
C142        H181   1.081       .  S
Mg143       O172   2.136       .  S
Mg143       O187   2.293       .  S
Mg143       O183   2.261       .  S
Mg143       O154   2.306       .  S
O144       Mg186   2.161       .  S
O144       Mg169   2.150       .  S
O144        C165   1.237       .  S
O145        C176   1.272       .  A
O145       Mg169   2.319       .  S
C146        O148   1.273       .  A
C146        O160   1.275       .  A
C146       C1219   1.497       .  S
O147        C175   1.274       .  A
O147       Mg149   2.321       .  S
O148       Mg180   2.274       .  S
Mg149       O155   2.159       .  S
Mg149       O163   2.288       .  S
Mg149       O151   2.296       .  S
C150        O188   1.272       .  A
C150        O156   1.271       .  A
C150       C1096   1.484   1_565  S
O151        C158   1.274       .  A
H152        C165   1.081       .  S
C153        O167   1.234       .  S
C153        O168   1.269       .  A
C153        H178   1.082       .  S
O154        C177   1.271       .  A
O155       Mg169   2.161       .  S
O156       Mg186   2.287       .  S
C157        O170   1.266       .  A
C157        O162   1.279       .  A
C157       C1116   1.513       .  S
C158        O185   1.274       .  A
C158       C1126   1.494       .  S
Mg159       O166   2.156       .  S
Mg159       O167   2.156       .  S
Mg159       O160   2.314       .  S
Mg159       O161   2.299       .  S
Mg159       O188   2.274       .  S
O161        C165   1.271       .  A
O162       Mg169   2.345       .  S
O163        C182   1.271       .  A
O164        C184   1.277       .  A
O164       Mg180   2.330       .  S
O166       Mg180   2.148       .  S
O166        C177   1.236       .  S
O167       Mg186   2.144       .  S
O168       Mg180   2.302       .  S
Mg169       O185   2.287       .  S
O170       Mg186   2.242       .  S
H171        C176   1.083       .  S
O172       Mg180   2.156       .  S
O172        C175   1.238       .  S
H173        C175   1.082       .  S
H174        C177   1.081       .  S
O179       Mg186   2.295       .  S
C182        O187   1.269       .  A
C182       C1109   1.486       .  S
O183        C184   1.269       .  A
C184       C1139   1.490       .  S
C189       C1136   1.499       .  S
C189        C190   1.401       .  A
C189        C194   1.416       .  A
C190        H209   1.085       .  S
C190        C191   1.400       .  A
C191       C1189   1.489       .  S
C191        C192   1.416       .  A
C192        C193   1.418       .  A
C192        C199   1.407       .  A
C193        C194   1.424       .  A
C193        C198   1.422       .  A
C194        C195   1.403       .  A
C195        H205   1.082       .  S
C195        C196   1.389       .  A
C196        H206   1.082       .  S
C196        C197   1.406       .  A
C197        C198   1.417       .  A
C197        C204   1.409       .  A
C198        C201   1.424       .  A
C199        H207   1.083       .  S
C199        C200   1.399       .  A
C200        H208   1.082       .  S
C200        C201   1.406       .  A
C201        C202   1.424       .  A
C202       C1076   1.497       .  S
C202        C203   1.400       .  A
C203        H210   1.085       .  S
C203        C204   1.394       .  A
C204       C1086   1.479       .  S
O211       Mg213   2.150   1_554  S
O211       Mg219   2.144       .  S
O211        C246   1.232       .  S
C212        O225   1.233   1_565  S
C212        O249   1.268       .  A
C212        H251   1.080       .  S
Mg213       O242   2.177   1_545  S
Mg213       O257   2.253       .  S
Mg213       O253   2.252   1_545  S
Mg213       O224   2.278       .  S
O214       Mg256   2.163   1_545  S
O214       Mg239   2.153       .  S
O214        C235   1.239   1_554  S
O215        C246   1.269       .  A
O215       Mg239   2.313       .  S
C216        O218   1.271       .  A
C216        O230   1.272       .  A
C216       C1066   1.487       .  S
O217        C245   1.271   1_554  A
O217       Mg219   2.299   1_565  S
O218       Mg250   2.269       .  S
Mg219       O225   2.164       .  S
Mg219       O233   2.269       .  S
Mg219       O221   2.300       .  S
C220        O258   1.265   1_545  A
C220        O226   1.267   1_556  A
C220       C1039   1.468       .  S
O221        C228   1.272       .  A
H222        C235   1.083       .  S
C223        O237   1.234       .  S
C223        O238   1.270       .  A
C223        H248   1.082   1_556  S
O224        C247   1.264       .  A
O225       Mg239   2.156       .  S
O226       Mg256   2.273   1_545  S
C227        O240   1.269       .  A
C227        O232   1.278       .  A
C227       C1209   1.506       .  S
C228        O255   1.271       .  A
C228       C1236   1.496       .  S
Mg229       O236   2.135       .  S
Mg229       O237   2.126   1_545  S
Mg229       O230   2.293   1_545  S
Mg229       O231   2.327       .  S
Mg229       O258   2.259   1_545  S
O231        C235   1.276       .  A
O232       Mg239   2.339       .  S
O233        C252   1.269       .  A
O234        C254   1.276       .  A
O234       Mg250   2.318       .  S
O236       Mg250   2.156   1_545  S
O236        C247   1.231       .  S
O237       Mg256   2.154   1_556  S
O238       Mg250   2.317       .  S
Mg239       O255   2.276       .  S
O240       Mg256   2.254   1_545  S
H241        C246   1.082   1_556  S
O242       Mg250   2.136       .  S
O242        C245   1.237       .  S
H243        C245   1.082       .  S
H244        C247   1.080       .  S
O249       Mg256   2.295       .  S
C252        O257   1.266   1_554  A
C252       C1049   1.468       .  S
O253        C254   1.268       .  A
C254       C1056   1.507       .  S
O259       Mg261   2.150   1_556  S
O259       Mg267   2.142       .  S
O259        C294   1.234       .  S
C260        O273   1.235       .  S
C260        O297   1.270       .  A
C260        H299   1.081       .  S
Mg261       O290   2.149       .  S
Mg261       O305   2.307       .  S
Mg261       O301   2.264       .  S
Mg261       O272   2.298       .  S
O262       Mg304   2.165       .  S
O262       Mg287   2.156       .  S
O262        C283   1.235       .  S
O263        C294   1.270       .  A
O263       Mg287   2.305       .  S
C264        O266   1.269       .  A
C264        O278   1.271       .  A
C264       C1226   1.495       .  S
O265        C293   1.272   1_556  A
O265       Mg267   2.314       .  S
O266       Mg298   2.275       .  S
Mg267       O273   2.159       .  S
Mg267       O281   2.277       .  S
Mg267       O269   2.306       .  S
C268        O306   1.266       .  A
C268        O274   1.276       .  A
C268        C996   1.475       .  S
O269        C276   1.273       .  A
H270        C283   1.082       .  S
C271        O285   1.235       .  S
C271        O286   1.269       .  A
C271        H296   1.082       .  S
O272        C295   1.269       .  A
O273       Mg287   2.156       .  S
O274       Mg304   2.314   1_554  S
C275        O288   1.271       .  A
C275        O280   1.276       .  A
C275       C1029   1.504       .  S
C276        O303   1.274       .  A
C276       C1019   1.510       .  S
Mg277       O284   2.127       .  S
Mg277       O285   2.160       .  S
Mg277       O278   2.290       .  S
Mg277       O279   2.297       .  S
Mg277       O306   2.228       .  S
O279        C283   1.269   1_554  A
O280       Mg287   2.303       .  S
O281        C300   1.270       .  A
O282        C302   1.269       .  A
O282       Mg298   2.280       .  S
O284       Mg298   2.139       .  S
O284        C295   1.235       .  S
O285       Mg304   2.142   1_554  S
O286       Mg298   2.301       .  S
Mg287       O303   2.305       .  S
O288       Mg304   2.268       .  S
H289        C294   1.082       .  S
O290       Mg298   2.153       .  S
O290        C293   1.236       .  S
H291        C293   1.083       .  S
H292        C295   1.080       .  S
O297       Mg304   2.303       .  S
C300        O305   1.274   1_556  A
C300       C1006   1.480       .  S
O301        C302   1.270       .  A
C302       C1089   1.500       .  S
O307       Mg309   2.163   1_556  S
O307       Mg315   2.158   1_455  S
O307        C342   1.235       .  S
C308        O321   1.233       .  S
C308        O345   1.268       .  A
C308        H347   1.082       .  S
Mg309       O338   2.160   1_455  S
Mg309       O353   2.302   1_455  S
Mg309       O349   2.270   1_455  S
Mg309       O320   2.301       .  S
O310       Mg352   2.164   1_455  S
O310       Mg335   2.196       .  S
O310        C331   1.238       .  S
O311        C342   1.271       .  A
O311       Mg335   2.312       .  S
C312        O314   1.275       .  A
C312        O326   1.272       .  A
C312       C1079   1.502       .  S
O313        C341   1.271   1_556  A
O313       Mg315   2.300       .  S
O314       Mg346   2.307       .  S
Mg315       O321   2.144       .  S
Mg315       O329   2.249       .  S
Mg315       O317   2.286   1_655  S
C316        O354   1.267       .  A
C316        O322   1.277   1_554  A
C316        C966   1.492       .  S
O317        C324   1.271       .  A
H318        C331   1.082       .  S
C319        O333   1.236       .  S
C319        O334   1.273       .  A
C319        H344   1.082   1_554  S
O320        C343   1.269       .  A
O321       Mg335   2.146   1_655  S
O322       Mg352   2.329   1_455  S
C323        O336   1.271       .  A
C323        O328   1.281       .  A
C323        C976   1.507       .  S
C324        O351   1.282       .  A
C324        C986   1.512       .  S
Mg325       O332   2.146       .  S
Mg325       O333   2.144   1_455  S
Mg325       O326   2.299   1_455  S
Mg325       O327   2.321       .  S
Mg325       O354   2.262       .  S
O327        C331   1.275   1_554  A
O328       Mg335   2.355       .  S
O329        C348   1.267       .  A
O330        C350   1.277       .  A
O330       Mg346   2.337       .  S
O332       Mg346   2.146   1_455  S
O332        C343   1.233       .  S
O333       Mg352   2.165   1_554  S
O334       Mg346   2.318       .  S
Mg335       O351   2.358       .  S
O336       Mg352   2.251   1_455  S
H337        C342   1.082       .  S
O338       Mg346   2.164       .  S
O338        C341   1.237       .  S
H339        C341   1.081       .  S
H340        C343   1.082       .  S
O345       Mg352   2.301       .  S
C348        O353   1.274   1_556  A
C348        C956   1.482       .  S
O349        C350   1.272       .  A
C350       C1199   1.509       .  S
O355       Mg357   2.146       .  S
O355       Mg363   2.147       .  S
O355        C390   1.233       .  S
C356        O369   1.233       .  S
C356        O393   1.267       .  A
C356        H395   1.081       .  S
Mg357       O386   2.168       .  S
Mg357       O401   2.273       .  S
Mg357       O397   2.247       .  S
Mg357       O368   2.290       .  S
O358       Mg400   2.161       .  S
O358       Mg383   2.153       .  S
O358        C379   1.237       .  S
O359        C390   1.269       .  A
O359       Mg383   2.308       .  S
C360        O362   1.274       .  A
C360        O374   1.278       .  A
C360        C949   1.500       .  S
O361        C389   1.272       .  A
O361       Mg363   2.308       .  S
O362       Mg394   2.285       .  S
Mg363       O369   2.135       .  S
Mg363       O377   2.249       .  S
Mg363       O365   2.309       .  S
C364        O402   1.272       .  A
C364        O370   1.270       .  A
C364        C896   1.474       .  S
O365        C372   1.273       .  A
H366        C379   1.082       .  S
C367        O381   1.233       .  S
C367        O382   1.269       .  A
C367        H392   1.083       .  S
O368        C391   1.267       .  A
O369       Mg383   2.143       .  S
O370       Mg400   2.273       .  S
C371        O384   1.269       .  A
C371        O376   1.272       .  A
C371        C926   1.510       .  S
C372        O399   1.270       .  A
C372        C919   1.495       .  S
Mg373       O380   2.149       .  S
Mg373       O381   2.146       .  S
Mg373       O374   2.323       .  S
Mg373       O375   2.312       .  S
Mg373       O402   2.275       .  S
O375        C379   1.273       .  A
O376       Mg383   2.305       .  S
O377        C396   1.268       .  A
O378        C398   1.276       .  A
O378       Mg394   2.323       .  S
O380       Mg394   2.157       .  S
O380        C391   1.233       .  S
O381       Mg400   2.159       .  S
O382       Mg394   2.309       .  S
Mg383       O399   2.266       .  S
O384       Mg400   2.269       .  S
H385        C390   1.083       .  S
O386       Mg394   2.157       .  S
O386        C389   1.237       .  S
H387        C389   1.082       .  S
H388        C391   1.081       .  S
O393       Mg400   2.291       .  S
C396        O401   1.270       .  A
C396        C906   1.467   1_545  S
O397        C398   1.266       .  A
C398        C936   1.509       .  S
C403       C1026   1.485       .  S
C403        C404   1.397       .  A
C403        C408   1.409       .  A
C404        H423   1.085       .  S
C404        C405   1.403       .  A
C405        C989   1.504       .  S
C405        C406   1.431       .  A
C406        C407   1.425       .  A
C406        C413   1.408       .  A
C407        C408   1.419       .  A
C407        C412   1.426       .  A
C408        C409   1.405       .  A
C409        H419   1.082       .  S
C409        C410   1.387       .  A
C410        H420   1.083       .  S
C410        C411   1.402       .  A
C411        C412   1.422       .  A
C411        C418   1.410       .  A
C412        C415   1.423       .  A
C413        H421   1.082       .  S
C413        C414   1.405       .  A
C414        H422   1.082       .  S
C414        C415   1.410       .  A
C415        C416   1.429       .  A
C416        C886   1.501       .  S
C416        C417   1.403       .  A
C417        H424   1.085       .  S
C417        C418   1.395       .  A
C418        C929   1.489       .  S
C425        C979   1.494       .  S
C425        C426   1.402       .  A
C425        C430   1.417       .  A
C426        H445   1.085       .  S
C426        C427   1.402       .  A
C427       C1059   1.492       .  S
C427        C428   1.417       .  A
C428        C429   1.421       .  A
C428        C435   1.407       .  A
C429        C430   1.420       .  A
C429        C434   1.422       .  A
C430        C431   1.407       .  A
C431        H441   1.082       .  S
C431        C432   1.393       .  A
C432        H442   1.082       .  S
C432        C433   1.403       .  A
C433        C434   1.424       .  A
C433        C440   1.417       .  A
C434        C437   1.421       .  A
C435        H443   1.083       .  S
C435        C436   1.395       .  A
C436        H444   1.083       .  S
C436        C437   1.405       .  A
C437        C438   1.415       .  A
C438        C916   1.486       .  S
C438        C439   1.395       .  A
C439        H446   1.086       .  S
C439        C440   1.395       .  A
C440        C876   1.492       .  S
O447       Mg449   2.189       .  S
O447       Mg455   2.148       .  S
O447        C482   1.234       .  S
C448        O461   1.231       .  S
C448        O485   1.266       .  A
C448        H487   1.081       .  S
Mg449       O478   2.142       .  S
Mg449       O493   2.242       .  S
Mg449       O489   2.282       .  S
Mg449       O460   2.291       .  S
O450       Mg492   2.168       .  S
O450       Mg475   2.171       .  S
O450        C471   1.238       .  S
O451        C482   1.272       .  A
O451       Mg475   2.322       .  S
C452        O454   1.275       .  A
C452        O466   1.277       .  A
C452        C856   1.497       .  S
O453        C481   1.274       .  A
O453       Mg455   2.318       .  S
O454       Mg486   2.292       .  S
Mg455       O461   2.142       .  S
Mg455       O469   2.245       .  S
Mg455       O457   2.313       .  S
C456        O494   1.269   1_565  A
C456        O462   1.266   1_565  A
C456        C826   1.482       .  S
O457        C464   1.275       .  A
H458        C471   1.081       .  S
C459        O473   1.235       .  S
C459        O474   1.271       .  A
C459        H484   1.079       .  S
O460        C483   1.268       .  A
O461       Mg475   2.149       .  S
O462       Mg492   2.247       .  S
C463        O476   1.270       .  A
C463        O468   1.282       .  A
C463        C846   1.516       .  S
C464        O491   1.277       .  A
C464        C889   1.504       .  S
Mg465       O472   2.133       .  S
Mg465       O473   2.170       .  S
Mg465       O466   2.319       .  S
Mg465       O467   2.309       .  S
Mg465       O494   2.263       .  S
O467        C471   1.273       .  A
O468       Mg475   2.369       .  S
O469        C488   1.266       .  A
O470        C490   1.278       .  A
O470       Mg486   2.350       .  S
O472       Mg486   2.147       .  S
O472        C483   1.234       .  S
O473       Mg492   2.175       .  S
O474       Mg486   2.311       .  S
Mg475       O491   2.310       .  S
O476       Mg492   2.263       .  S
H477        C482   1.079       .  S
O478       Mg486   2.147       .  S
O478        C481   1.238       .  S
H479        C481   1.083       .  S
H480        C483   1.081       .  S
O485       Mg492   2.295       .  S
C488        O493   1.264       .  A
C488        C836   1.460   1_655  S
O489        C490   1.272       .  A
C490        C869   1.516       .  S
O495       Mg497   2.138       .  S
O495       Mg503   2.155       .  S
O495        C530   1.235       .  S
C496        O509   1.232       .  S
C496        O533   1.267       .  A
C496        H535   1.082       .  S
Mg497       O526   2.161       .  S
Mg497       O541   2.300       .  S
Mg497       O537   2.235       .  S
Mg497       O508   2.294       .  S
O498       Mg540   2.153       .  S
O498       Mg523   2.178       .  S
O498        C519   1.236       .  S
O499        C530   1.268       .  A
O499       Mg523   2.291       .  S
C500        O502   1.274       .  A
C500        O514   1.274       .  A
C500        C879   1.495       .  S
O501        C529   1.270       .  A
O501       Mg503   2.302       .  S
O502       Mg534   2.294       .  S
Mg503       O509   2.141       .  S
Mg503       O517   2.259       .  S
Mg503       O505   2.240       .  S
C504        O542   1.269       .  A
C504        O510   1.275       .  A
C504        C776   1.494   1_655  S
O505        C512   1.266       .  A
H506        C519   1.083       .  S
C507        O521   1.235       .  S
C507        O522   1.273       .  A
C507        H532   1.080       .  S
O508        C531   1.268       .  A
O509       Mg523   2.180       .  S
O510       Mg540   2.304       .  S
C511        O524   1.275       .  A
C511        O516   1.278       .  A
C511        C816   1.514       .  S
C512        O539   1.278       .  A
C512        C806   1.492       .  S
Mg513       O520   2.151       .  S
Mg513       O521   2.165       .  S
Mg513       O514   2.298       .  S
Mg513       O515   2.308       .  S
Mg513       O542   2.262       .  S
O515        C519   1.272       .  A
O516       Mg523   2.335       .  S
O517        C536   1.268       .  A
O518        C538   1.279       .  A
O518       Mg534   2.338       .  S
O520       Mg534   2.158       .  S
O520        C531   1.234       .  S
O521       Mg540   2.178       .  S
O522       Mg534   2.321       .  S
Mg523       O539   2.330       .  S
O524       Mg540   2.292       .  S
H525        C530   1.080       .  S
O526       Mg534   2.147       .  S
O526        C529   1.235       .  S
H527        C529   1.083       .  S
H528        C531   1.082       .  S
O533       Mg540   2.298       .  S
C536        O541   1.273       .  A
C536        C789   1.478       .  S
O537        C538   1.266       .  A
C538        C796   1.507       .  S
C543       C1069   1.486       .  S
C543        C544   1.399       .  A
C543        C548   1.419       .  A
C544        H563   1.086       .  S
C544        C545   1.395       .  A
C545       C1016   1.498       .  S
C545        C546   1.419       .  A
C546        C547   1.426       .  A
C546        C553   1.402       .  A
C547        C548   1.417       .  A
C547        C552   1.425       .  A
C548        C549   1.408       .  A
C549        H559   1.082       .  S
C549        C550   1.397       .  A
C550        H560   1.082       .  S
C550        C551   1.405       .  A
C551        C552   1.428       .  A
C551        C558   1.427       .  A
C552        C555   1.417       .  A
C553        H561   1.083       .  S
C553        C554   1.392       .  A
C554        H562   1.082       .  S
C554        C555   1.409       .  A
C555        C556   1.412       .  A
C556        C799   1.488       .  S
C556        C557   1.403       .  A
C557        H564   1.085       .  S
C557        C558   1.406       .  A
C558        C849   1.511       .  S
C565       C1279   1.497       .  S
C565        C566   1.404       .  A
C565        C570   1.419       .  A
C566        H585   1.085       .  S
C566        C567   1.400       .  A
C567       C1169   1.496       .  S
C567        C568   1.416       .  A
C568        C569   1.422       .  A
C568        C575   1.405       .  A
C569        C570   1.422       .  A
C569        C574   1.425   1_455  A
C570        C571   1.406       .  A
C571        H581   1.082       .  S
C571        C572   1.395   1_455  A
C572        H582   1.082       .  S
C572        C573   1.406       .  A
C573        C574   1.422       .  A
C573        C580   1.420       .  A
C574        C577   1.420       .  A
C575        H583   1.082       .  S
C575        C576   1.393       .  A
C576        H584   1.082   1_455  S
C576        C577   1.406   1_455  A
C577        C578   1.416       .  A
C578        C819   1.496       .  S
C578        C579   1.404       .  A
C579        H586   1.084       .  S
C579        C580   1.405       .  A
C580        C866   1.501       .  S
C587       C1129   1.489       .  S
C587        C588   1.392       .  A
C587        C592   1.415       .  A
C588        H607   1.086       .  S
C588        C589   1.393       .  A
C589       C1289   1.488       .  S
C589        C590   1.420       .  A
C590        C591   1.423       .  A
C590        C597   1.406       .  A
C591        C592   1.423       .  A
C591        C596   1.423       .  A
C592        C593   1.404       .  A
C593        H603   1.083       .  S
C593        C594   1.393       .  A
C594        H604   1.082       .  S
C594        C595   1.405       .  A
C595        C596   1.422       .  A
C595        C602   1.414       .  A
C596        C599   1.423       .  A
C597        H605   1.083       .  S
C597        C598   1.400       .  A
C598        H606   1.083       .  S
C598        C599   1.407       .  A
C599        C600   1.421       .  A
C600        C946   1.496       .  S
C600        C601   1.400       .  A
C601        H608   1.086       .  S
C601        C602   1.396       .  A
C602        C809   1.489       .  S
C609       C1176   1.496       .  S
C609        C610   1.399       .  A
C609        C614   1.421       .  A
C610        H629   1.085       .  S
C610        C611   1.398       .  A
C611       C1119   1.489       .  S
C611        C612   1.415       .  A
C612        C613   1.421       .  A
C612        C619   1.404   1_565  A
C613        C614   1.422       .  A
C613        C618   1.424   1_565  A
C614        C615   1.407       .  A
C615        H625   1.082       .  S
C615        C616   1.395   1_565  A
C616        H626   1.083       .  S
C616        C617   1.405       .  A
C617        C618   1.420       .  A
C617        C624   1.415       .  A
C618        C621   1.422       .  A
C619        H627   1.083       .  S
C619        C620   1.395       .  A
C620        H628   1.082       .  S
C620        C621   1.408       .  A
C621        C622   1.422       .  A
C622        C859   1.498       .  S
C622        C623   1.401       .  A
C623        H630   1.085       .  S
C623        C624   1.400       .  A
C624        C939   1.489       .  S
O631       Mg633   2.154   1_545  S
O631       Mg639   2.150   1_556  S
O631        C666   1.236       .  S
C632        O645   1.235       .  S
C632        O669   1.270       .  A
C632        H671   1.080   1_455  S
Mg633       O662   2.173   1_556  S
Mg633       O677   2.312       .  S
Mg633       O673   2.258       .  S
Mg633       O644   2.290       .  S
O634       Mg676   2.143   1_556  S
O634       Mg659   2.149       .  S
O634        C655   1.235       .  S
O635        C666   1.272   1_455  A
O635       Mg659   2.309       .  S
C636        O638   1.274   1_455  A
C636        O650   1.274       .  A
C636        C969   1.483       .  S
O637        C665   1.270       .  A
O637       Mg639   2.301   1_565  S
O638       Mg670   2.275       .  S
Mg639       O645   2.127   1_655  S
Mg639       O653   2.206       .  S
Mg639       O641   2.296   1_554  S
C640        O678   1.268   1_544  A
C640        O646   1.275       .  A
C640       C1046   1.472       .  S
O641        C648   1.269       .  A
H642        C655   1.081       .  S
C643        O657   1.236       .  S
C643        O658   1.271   1_455  A
C643        H668   1.081       .  S
O644        C667   1.267       .  A
O645       Mg659   2.129   1_554  S
O646       Mg676   2.312       .  S
C647        O660   1.273       .  A
C647        O652   1.269       .  A
C647        C999   1.493       .  S
C648        O675   1.269   1_655  A
C648        C959   1.487       .  S
Mg649       O656   2.136   1_455  S
Mg649       O657   2.159   1_556  S
Mg649       O650   2.313   1_556  S
Mg649       O651   2.300   1_565  S
Mg649       O678   2.224       .  S
O651        C655   1.270       .  A
O652       Mg659   2.295   1_554  S
O653        C672   1.264   1_544  A
O654        C674   1.276       .  A
O654       Mg670   2.320   1_556  S
O656       Mg670   2.146   1_556  S
O656        C667   1.233       .  S
O657       Mg676   2.158   1_565  S
O658       Mg670   2.307       .  S
Mg659       O675   2.265       .  S
O660       Mg676   2.267       .  S
H661        C666   1.080       .  S
O662       Mg670   2.159       .  S
O662        C665   1.236       .  S
H663        C665   1.081       .  S
H664        C667   1.080       .  S
O669       Mg676   2.306       .  S
C672        O677   1.274       .  A
C672       C1036   1.466       .  S
O673        C674   1.273       .  A
C674       C1009   1.481       .  S
O679       Mg681   2.161       .  S
O679       Mg687   2.155       .  S
O679        C714   1.234       .  S
C680        O693   1.236       .  S
C680        O717   1.270       .  A
C680        H719   1.081       .  S
Mg681       O710   2.166       .  S
Mg681       O725   2.280       .  S
Mg681       O721   2.281       .  S
Mg681       O692   2.292       .  S
O682       Mg724   2.170       .  S
O682       Mg707   2.143       .  S
O682        C703   1.236       .  S
O683        C714   1.269       .  A
O683       Mg707   2.304       .  S
C684        O686   1.269       .  A
C684        O698   1.282       .  A
C684       C1266   1.490       .  S
O685        C713   1.270       .  A
O685       Mg687   2.303       .  S
O686       Mg718   2.242       .  S
Mg687       O693   2.160       .  S
Mg687       O701   2.290       .  S
Mg687       O689   2.340       .  S
C688        O726   1.275       .  A
C688        O694   1.274       .  A
C688       C1099   1.478       .  S
O689        C696   1.280       .  A
H690        C703   1.080       .  S
C691        O705   1.233       .  S
C691        O706   1.267       .  A
C691        H716   1.081       .  S
O692        C715   1.269       .  A
O693       Mg707   2.162       .  S
O694       Mg724   2.298       .  S
C695        O708   1.269       .  A
C695        O700   1.271       .  A
C695       C1146   1.502       .  S
C696        O723   1.269       .  A
C696       C1259   1.486       .  S
Mg697       O704   2.143       .  S
Mg697       O705   2.155       .  S
Mg697       O698   2.349       .  S
Mg697       O699   2.302       .  S
Mg697       O726   2.271       .  S
O699        C703   1.270       .  A
O700       Mg707   2.290       .  S
O701        C720   1.276       .  A
O702        C722   1.269       .  A
O702       Mg718   2.268       .  S
O704       Mg718   2.160       .  S
O704        C715   1.235       .  S
O705       Mg724   2.148       .  S
O706       Mg718   2.291       .  S
Mg707       O723   2.239       .  S
O708       Mg724   2.269       .  S
H709        C714   1.080       .  S
O710       Mg718   2.143       .  S
O710        C713   1.236       .  S
H711        C713   1.079       .  S
H712        C715   1.081       .  S
O717       Mg724   2.296       .  S
C720        O725   1.271       .  A
C720       C1106   1.484       .  S
O721        C722   1.272       .  A
C722       C1156   1.488       .  S
O727       Mg729   2.119       .  S
O727       Mg735   2.135       .  S
O727        C762   1.234       .  S
C728        O741   1.236       .  S
C728        O765   1.272       .  A
C728        H767   1.079       .  S
Mg729       O758   2.135       .  S
Mg729       O773   2.287       .  S
Mg729       O769   2.202       .  S
Mg729       O740   2.312       .  S
O730       Mg772   2.141       .  S
O730       Mg755   2.147       .  S
O730        C751   1.233       .  S
O731        C762   1.268       .  A
O731       Mg755   2.294       .  S
C732        O734   1.268       .  A
C732        O746   1.275       .  A
C732        C899   1.472       .  S
O733        C761   1.271       .  A
O733       Mg735   2.314       .  S
O734       Mg766   2.243       .  S
Mg735       O741   2.155       .  S
Mg735       O749   2.298       .  S
Mg735       O737   2.288       .  S
C736        O774   1.274       .  A
C736        O742   1.271       .  A
C736        C786   1.484       .  S
O737        C744   1.273       .  A
H738        C751   1.080       .  S
C739        O753   1.233       .  S
C739        O754   1.267       .  A
C739        H764   1.081       .  S
O740        C763   1.273       .  A
O741       Mg755   2.162       .  S
O742       Mg772   2.280       .  S
C743        O756   1.266       .  A
C743        O748   1.273       .  A
C743        C829   1.482       .  S
C744        O771   1.270       .  A
C744        C909   1.469       .  S
Mg745       O752   2.158       .  S
Mg745       O753   2.168       .  S
Mg745       O746   2.302       .  S
Mg745       O747   2.295       .  S
Mg745       O774   2.289       .  S
O747        C751   1.267       .  A
O748       Mg755   2.303       .  S
O749        C768   1.273       .  A
O750        C770   1.269       .  A
O750       Mg766   2.278       .  S
O752       Mg766   2.159       .  S
O752        C763   1.238       .  S
O753       Mg772   2.137       .  S
O754       Mg766   2.295       .  S
Mg755       O771   2.243       .  S
O756       Mg772   2.235       .  S
H757        C762   1.081       .  S
O758       Mg766   2.148       .  S
O758        C761   1.235       .  S
H759        C761   1.080       .  S
H760        C763   1.080       .  S
O765       Mg772   2.308       .  S
C768        O773   1.268       .  A
C768        C779   1.489       .  S
O769        C770   1.260       .  A
C770        C839   1.460       .  S
C775        C776   1.422       .  A
C775        C780   1.412       .  A
C775       Br782   1.930       .  S
C776        C777   1.412       .  A
C777        C778   1.408       .  A
C777       Br784   1.935   1_455  S
C778        C779   1.418       .  A
C778       Br783   1.935       .  S
C779        C780   1.409       .  A
C780       Br781   1.934       .  S
C785        C786   1.413       .  A
C785        C790   1.407       .  A
C785       Br792   1.931       .  S
C786        C787   1.415       .  A
C787        C788   1.412       .  A
C787       Br794   1.930       .  S
C788        C789   1.407       .  A
C788       Br793   1.927       .  S
C789        C790   1.412       .  A
C790       Br791   1.937       .  S
C795        C796   1.422       .  A
C795        C800   1.412       .  A
C795       Br802   1.933       .  S
C796        C797   1.431       .  A
C797        C798   1.409       .  A
C797       Br804   1.938       .  S
C798        C799   1.402       .  A
C798       Br803   1.936       .  S
C799        C800   1.407       .  A
C800       Br801   1.930       .  S
C805        C806   1.421       .  A
C805        C810   1.406       .  A
C805       Br812   1.936       .  S
C806        C807   1.415       .  A
C807        C808   1.412       .  A
C807       Br814   1.926       .  S
C808        C809   1.409       .  A
C808       Br813   1.929       .  S
C809        C810   1.405       .  A
C810       Br811   1.934       .  S
C815        C816   1.429       .  A
C815        C820   1.413       .  A
C815       Br822   1.931       .  S
C816        C817   1.425       .  A
C817        C818   1.413       .  A
C817       Br824   1.933   1_655  S
C818        C819   1.406       .  A
C818       Br823   1.931   1_655  S
C819        C820   1.405       .  A
C820       Br821   1.934       .  S
C825        C826   1.415       .  A
C825        C830   1.405       .  A
C825       Br832   1.937       .  S
C826        C827   1.416       .  A
C827        C828   1.408       .  A
C827       Br834   1.936       .  S
C828        C829   1.413       .  A
C828       Br833   1.935       .  S
C829        C830   1.415       .  A
C830       Br831   1.938       .  S
C835        C836   1.403       .  A
C835        C840   1.401       .  A
C835       Br842   1.931   1_455  S
C836        C837   1.412       .  A
C837        C838   1.399       .  A
C837       Br844   1.931       .  S
C838        C839   1.403       .  A
C838       Br843   1.930       .  S
C839        C840   1.415       .  A
C840       Br841   1.934       .  S
C845        C846   1.424   1_565  A
C845        C850   1.417       .  A
C845       Br852   1.932   1_565  S
C846        C847   1.424   1_545  A
C847        C848   1.417       .  A
C847       Br854   1.933   1_565  S
C848        C849   1.412       .  A
C848       Br853   1.931       .  S
C849        C850   1.413       .  A
C850       Br851   1.933       .  S
C855        C856   1.419       .  A
C855        C860   1.408       .  A
C855       Br862   1.935       .  S
C856        C857   1.417       .  A
C857        C858   1.414       .  A
C857       Br864   1.931       .  S
C858        C859   1.414       .  A
C858       Br863   1.933       .  S
C859        C860   1.410       .  A
C860       Br861   1.933   1_545  S
C865        C866   1.407       .  A
C865        C870   1.415       .  A
C865       Br872   1.932       .  S
C866        C867   1.409       .  A
C867        C868   1.415       .  A
C867       Br874   1.932   1_655  S
C868        C869   1.424       .  A
C868       Br873   1.929   1_655  S
C869        C870   1.426       .  A
C870       Br871   1.932       .  S
C875        C876   1.411       .  A
C875        C880   1.410   1_455  A
C875       Br882   1.928       .  S
C876        C877   1.408       .  A
C877        C878   1.407   1_455  A
C877       Br884   1.931       .  S
C878        C879   1.419       .  A
C878       Br883   1.933       .  S
C879        C880   1.416       .  A
C880       Br881   1.931       .  S
C885        C886   1.416       .  A
C885        C890   1.413       .  A
C885       Br892   1.934       .  S
C886        C887   1.410       .  A
C887        C888   1.414       .  A
C887       Br894   1.932       .  S
C888        C889   1.424   1_455  A
C888       Br893   1.934   1_455  S
C889        C890   1.415   1_655  A
C890       Br891   1.931   1_455  S
C895        C896   1.414       .  A
C895        C900   1.404       .  A
C895       Br902   1.932       .  S
C896        C897   1.407       .  A
C897        C898   1.408       .  A
C897       Br904   1.931       .  S
C898        C899   1.414       .  A
C898       Br903   1.929       .  S
C899        C900   1.404       .  A
C900       Br901   1.930       .  S
C905        C906   1.406       .  A
C905        C910   1.405       .  A
C905       Br912   1.930   1_565  S
C906        C907   1.412       .  A
C907        C908   1.404       .  A
C907       Br914   1.934       .  S
C908        C909   1.408       .  A
C908       Br913   1.931       .  S
C909        C910   1.413       .  A
C910       Br911   1.934       .  S
C915        C916   1.407       .  A
C915        C920   1.407   1_565  A
C915       Br922   1.929       .  S
C916        C917   1.406       .  A
C917        C918   1.409       .  A
C917       Br924   1.933       .  S
C918        C919   1.424   1_565  A
C918       Br923   1.936       .  S
C919        C920   1.419       .  A
C920       Br921   1.934       .  S
C925        C926   1.425       .  A
C925        C930   1.408       .  A
C925       Br932   1.930       .  S
C926        C927   1.425       .  A
C927        C928   1.413       .  A
C927       Br934   1.934       .  S
C928        C929   1.406       .  A
C928       Br933   1.930       .  S
C929        C930   1.403       .  A
C930       Br931   1.935       .  S
C935        C936   1.423       .  A
C935        C940   1.412       .  A
C935       Br942   1.933       .  S
C936        C937   1.430       .  A
C937        C938   1.411       .  A
C937       Br944   1.935   1_545  S
C938        C939   1.402       .  A
C938       Br943   1.934   1_545  S
C939        C940   1.406       .  A
C940       Br941   1.929       .  S
C945        C946   1.410       .  A
C945        C950   1.410       .  A
C945       Br952   1.931       .  S
C946        C947   1.410       .  A
C947        C948   1.412       .  A
C947       Br954   1.930       .  S
C948        C949   1.418       .  A
C948       Br953   1.931       .  S
C949        C950   1.421       .  A
C950       Br951   1.935       .  S
C955        C956   1.408       .  A
C955        C960   1.410       .  A
C955       Br962   1.933   1_556  S
C956        C957   1.415   1_655  A
C957        C958   1.407       .  A
C957       Br964   1.934       .  S
C958        C959   1.412   1_455  A
C958       Br963   1.934       .  S
C959        C960   1.420       .  A
C960       Br961   1.934   1_556  S
C965        C966   1.414   1_656  A
C965        C970   1.405       .  A
C965       Br972   1.931       .  S
C966        C967   1.417       .  A
C967        C968   1.416       .  A
C967       Br974   1.927       .  S
C968        C969   1.409       .  A
C968       Br973   1.926       .  S
C969        C970   1.408   1_454  A
C970       Br971   1.932       .  S
C975        C976   1.424       .  A
C975        C980   1.414       .  A
C975       Br982   1.933       .  S
C976        C977   1.422       .  A
C977        C978   1.409       .  A
C977       Br984   1.931   1_455  S
C978        C979   1.406       .  A
C978       Br983   1.933       .  S
C979        C980   1.409       .  A
C980       Br981   1.933       .  S
C985        C986   1.427       .  A
C985        C990   1.413       .  A
C985       Br992   1.935       .  S
C986        C987   1.416       .  A
C987        C988   1.418       .  A
C987       Br994   1.929       .  S
C988        C989   1.416       .  A
C988       Br993   1.930       .  S
C989        C990   1.407       .  A
C990       Br991   1.932       .  S
C995        C996   1.404       .  A
C995       C1000   1.409       .  A
C995      Br1002   1.935   1_554  S
C996        C997   1.412       .  A
C997        C998   1.405       .  A
C997      Br1004   1.933       .  S
C998        C999   1.415       .  A
C998      Br1003   1.937       .  S
C999       C1000   1.425       .  A
C1000     Br1001   1.932   1_554  S
C1005      C1006   1.410       .  A
C1005      C1010   1.404       .  A
C1005     Br1012   1.935   1_556  S
C1006      C1007   1.410       .  A
C1007      C1008   1.415       .  A
C1007     Br1014   1.926       .  S
C1008      C1009   1.412       .  A
C1008     Br1013   1.925       .  S
C1009      C1010   1.411       .  A
C1010     Br1011   1.934   1_556  S
C1015      C1016   1.407       .  A
C1015      C1020   1.411       .  A
C1015     Br1022   1.934       .  S
C1016      C1017   1.409       .  A
C1017      C1018   1.415       .  A
C1017     Br1024   1.930       .  S
C1018      C1019   1.424       .  A
C1018     Br1023   1.934       .  S
C1019      C1020   1.427       .  A
C1020     Br1021   1.937       .  S
C1025      C1026   1.403       .  A
C1025      C1030   1.406       .  A
C1025     Br1032   1.931       .  S
C1026      C1027   1.405       .  A
C1027      C1028   1.411       .  A
C1027     Br1034   1.934       .  S
C1028      C1029   1.428       .  A
C1028     Br1033   1.935       .  S
C1029      C1030   1.422       .  A
C1030     Br1031   1.934       .  S
C1035      C1036   1.402   1_554  A
C1035      C1040   1.404       .  A
C1035     Br1042   1.927       .  S
C1036      C1037   1.414   1_565  A
C1037      C1038   1.405       .  A
C1037     Br1044   1.934       .  S
C1038      C1039   1.406       .  A
C1038     Br1043   1.929       .  S
C1039      C1040   1.413   1_546  A
C1040     Br1041   1.932       .  S
C1045      C1046   1.407   1_556  A
C1045      C1050   1.407       .  A
C1045     Br1052   1.931       .  S
C1046      C1047   1.414   1_545  A
C1047      C1048   1.403       .  A
C1047     Br1054   1.931       .  S
C1048      C1049   1.403   1_565  A
C1048     Br1053   1.930       .  S
C1049      C1050   1.414   1_554  A
C1050     Br1051   1.933       .  S
C1055      C1056   1.429       .  A
C1055      C1060   1.411       .  A
C1055     Br1062   1.938       .  S
C1056      C1057   1.423       .  A
C1057      C1058   1.413       .  A
C1057     Br1064   1.934       .  S
C1058      C1059   1.406       .  A
C1058     Br1063   1.930       .  S
C1059      C1060   1.404       .  A
C1060     Br1061   1.935       .  S
C1065      C1066   1.415       .  A
C1065      C1070   1.408       .  A
C1065     Br1072   1.933       .  S
C1066      C1067   1.419       .  A
C1067      C1068   1.403       .  A
C1067     Br1074   1.935       .  S
C1068      C1069   1.407       .  A
C1068     Br1073   1.933       .  S
C1069      C1070   1.411       .  A
C1070     Br1071   1.931       .  S
C1075      C1076   1.409       .  A
C1075      C1080   1.412       .  A
C1075     Br1082   1.934       .  S
C1076      C1077   1.413       .  A
C1077      C1078   1.413       .  A
C1077     Br1084   1.933       .  S
C1078      C1079   1.417       .  A
C1078     Br1083   1.931       .  S
C1079      C1080   1.424       .  A
C1080     Br1081   1.935       .  S
C1085      C1086   1.403       .  A
C1085      C1090   1.406       .  A
C1085     Br1092   1.933       .  S
C1086      C1087   1.404       .  A
C1087      C1088   1.407       .  A
C1087     Br1094   1.933       .  S
C1088      C1089   1.426       .  A
C1088     Br1093   1.937       .  S
C1089      C1090   1.423       .  A
C1090     Br1091   1.934       .  S
C1095      C1096   1.415       .  A
C1095      C1100   1.404       .  A
C1095     Br1102   1.933       .  S
C1096      C1097   1.415       .  A
C1097      C1098   1.412       .  A
C1097     Br1104   1.931   1_545  S
C1098      C1099   1.412       .  A
C1098     Br1103   1.931       .  S
C1099      C1100   1.409       .  A
C1100     Br1101   1.936       .  S
C1105      C1106   1.408       .  A
C1105      C1110   1.407       .  A
C1105     Br1112   1.934       .  S
C1106      C1107   1.418       .  A
C1107      C1108   1.411       .  A
C1107     Br1114   1.934       .  S
C1108      C1109   1.410       .  A
C1108     Br1113   1.931       .  S
C1109      C1110   1.417       .  A
C1110     Br1111   1.932       .  S
C1115      C1116   1.424       .  A
C1115      C1120   1.413       .  A
C1115     Br1122   1.933       .  S
C1116      C1117   1.431       .  A
C1117      C1118   1.411       .  A
C1117     Br1124   1.937   1_565  S
C1118      C1119   1.402       .  A
C1118     Br1123   1.934   1_565  S
C1119      C1120   1.406       .  A
C1120     Br1121   1.930       .  S
C1125      C1126   1.417       .  A
C1125      C1130   1.410       .  A
C1125     Br1132   1.933       .  S
C1126      C1127   1.421       .  A
C1127      C1128   1.407       .  A
C1127     Br1134   1.936       .  S
C1128      C1129   1.408       .  A
C1128     Br1133   1.935       .  S
C1129      C1130   1.412       .  A
C1130     Br1131   1.934       .  S
C1135      C1136   1.410       .  A
C1135      C1140   1.407       .  A
C1135     Br1142   1.934       .  S
C1136      C1137   1.416       .  A
C1137      C1138   1.414       .  A
C1137     Br1144   1.931       .  S
C1138      C1139   1.413       .  A
C1138     Br1143   1.929       .  S
C1139      C1140   1.415       .  A
C1140     Br1141   1.930       .  S
C1145      C1146   1.425       .  A
C1145      C1150   1.412       .  A
C1145     Br1152   1.935       .  S
C1146      C1147   1.425       .  A
C1147      C1148   1.408       .  A
C1147     Br1154   1.937       .  S
C1148      C1149   1.406       .  A
C1148     Br1153   1.937   1_545  S
C1149      C1150   1.403       .  A
C1150     Br1151   1.929       .  S
C1155      C1156   1.417       .  A
C1155      C1160   1.407       .  A
C1155     Br1162   1.935       .  S
C1156      C1157   1.417       .  A
C1157      C1158   1.410       .  A
C1157     Br1164   1.932       .  S
C1158      C1159   1.408       .  A
C1158     Br1163   1.929   1_655  S
C1159      C1160   1.410       .  A
C1160     Br1161   1.933       .  S
C1165      C1166   1.423       .  A
C1165      C1170   1.411       .  A
C1165     Br1172   1.935       .  S
C1166      C1167   1.424       .  A
C1167      C1168   1.414       .  A
C1167     Br1174   1.934       .  S
C1168      C1169   1.408       .  A
C1168     Br1173   1.932       .  S
C1169      C1170   1.409       .  A
C1170     Br1171   1.933   1_455  S
C1175      C1176   1.410       .  A
C1175      C1180   1.410       .  A
C1175     Br1182   1.934   1_565  S
C1176      C1177   1.413       .  A
C1177      C1178   1.410       .  A
C1177     Br1184   1.933       .  S
C1178      C1179   1.416       .  A
C1178     Br1183   1.933       .  S
C1179      C1180   1.421       .  A
C1180     Br1181   1.935       .  S
C1185      C1186   1.425       .  A
C1185      C1190   1.414   1_455  A
C1185     Br1192   1.927       .  S
C1186      C1187   1.432   1_455  A
C1187      C1188   1.410       .  A
C1187     Br1194   1.930       .  S
C1188      C1189   1.400       .  A
C1188     Br1193   1.936       .  S
C1189      C1190   1.406       .  A
C1190     Br1191   1.933       .  S
C1195      C1196   1.406       .  A
C1195      C1200   1.414       .  A
C1195     Br1202   1.932       .  S
C1196      C1197   1.407       .  A
C1197      C1198   1.411       .  A
C1197     Br1204   1.932       .  S
C1198      C1199   1.422       .  A
C1198     Br1203   1.934   1_655  S
C1199      C1200   1.427       .  A
C1200     Br1201   1.933       .  S
C1205      C1206   1.411       .  A
C1205      C1210   1.417       .  A
C1205     Br1212   1.929       .  S
C1206      C1207   1.407       .  A
C1207      C1208   1.410       .  A
C1207     Br1214   1.935       .  S
C1208      C1209   1.425       .  A
C1208     Br1213   1.937       .  S
C1209      C1210   1.420       .  A
C1210     Br1211   1.931       .  S
C1215      C1216   1.408       .  A
C1215      C1220   1.406   1_545  A
C1215     Br1222   1.934       .  S
C1216      C1217   1.409       .  A
C1217      C1218   1.411       .  A
C1217     Br1224   1.933       .  S
C1218      C1219   1.423   1_545  A
C1218     Br1223   1.934   1_545  S
C1219      C1220   1.418       .  A
C1220     Br1221   1.930       .  S
C1225      C1226   1.421       .  A
C1225      C1230   1.405       .  A
C1225     Br1232   1.935       .  S
C1226      C1227   1.420       .  A
C1227      C1228   1.408       .  A
C1227     Br1234   1.933       .  S
C1228      C1229   1.409       .  A
C1228     Br1233   1.932       .  S
C1229      C1230   1.407       .  A
C1230     Br1231   1.934       .  S
C1235      C1236   1.424       .  A
C1235      C1240   1.404       .  A
C1235     Br1242   1.932       .  S
C1236      C1237   1.421       .  A
C1237      C1238   1.409       .  A
C1237     Br1244   1.934       .  S
C1238      C1239   1.408       .  A
C1238     Br1243   1.932       .  S
C1239      C1240   1.402       .  A
C1240     Br1241   1.936       .  S
C1245      C1246   1.409       .  A
C1245      C1250   1.411       .  A
C1245     Br1252   1.934       .  S
C1246      C1247   1.409       .  A
C1247      C1248   1.413   1_545  A
C1247     Br1254   1.933       .  S
C1248      C1249   1.420       .  A
C1248     Br1253   1.926       .  S
C1249      C1250   1.424   1_565  A
C1250     Br1251   1.937   1_545  S
C1255      C1256   1.409       .  A
C1255      C1260   1.412       .  A
C1255     Br1262   1.929       .  S
C1256      C1257   1.414       .  A
C1257      C1258   1.408       .  A
C1257     Br1264   1.936       .  S
C1258      C1259   1.415       .  A
C1258     Br1263   1.936       .  S
C1259      C1260   1.414       .  A
C1260     Br1261   1.929       .  S
C1265      C1266   1.414       .  A
C1265      C1270   1.408       .  A
C1265     Br1272   1.936       .  S
C1266      C1267   1.416       .  A
C1267      C1268   1.416       .  A
C1267     Br1274   1.931       .  S
C1268      C1269   1.412       .  A
C1268     Br1273   1.928   1_655  S
C1269      C1270   1.415       .  A
C1270     Br1271   1.936       .  S
C1275      C1276   1.422       .  A
C1275      C1280   1.408       .  A
C1275     Br1282   1.937       .  S
C1276      C1277   1.417       .  A
C1277      C1278   1.413       .  A
C1277     Br1284   1.928       .  S
C1278      C1279   1.412       .  A
C1278     Br1283   1.930       .  S
C1279      C1280   1.409       .  A
C1280     Br1281   1.935   1_455  S
C1285      C1286   1.414       .  A
C1285      C1290   1.413       .  A
C1285     Br1292   1.923       .  S
C1286      C1287   1.416       .  A
C1287      C1288   1.405       .  A
C1287     Br1294   1.936       .  S
C1288      C1289   1.410       .  A
C1288     Br1293   1.934       .  S
C1289      C1290   1.411       .  A
C1290     Br1291   1.930       .  S
C1295      C1296   1.420       .  A
C1295      C1300   1.412   1_455  A
C1295     Br1302   1.928       .  S
C1296      C1297   1.425   1_455  A
C1297      C1298   1.406       .  A
C1297     Br1304   1.938       .  S
C1298      C1299   1.404       .  A
C1298     Br1303   1.935       .  S
C1299      C1300   1.407       .  A
C1300     Br1301   1.931       .  S
C1305      C1306   1.410       .  A
C1305      C1310   1.412       .  A
C1305     Br1312   1.929       .  S
C1306      C1307   1.406       .  A
C1307      C1308   1.408       .  A
C1307     Br1314   1.937       .  S
C1308      C1309   1.426       .  A
C1308     Br1313   1.936       .  S
C1309      C1310   1.415       .  A
C1310     Br1311   1.927       .  S
