geometry optimzed in LAMMPS
_audit_creation_date              2020-11-30 
_audit_creation_method            'lammps2cif' 
_symmetry_space_group_name_H-M    'P1' 
_symmetry_Int_Tables_number       1 
_symmetry_cell_setting            triclinic 
loop_ 
_symmetry_equiv_pos_as_xyz 
  x,y,z 
_cell_length_a                    42.23959949 
_cell_length_b                    41.97706647668527 
_cell_length_c                    42.64480901202479 
_cell_angle_alpha                 90.43011209488976 
_cell_angle_beta                  89.5973053636794 
_cell_angle_gamma                 89.70787018779316 
loop_ 
_atom_site_label 
_atom_site_type_symbol 
_atom_site_fract_x 
_atom_site_fract_y 
_atom_site_fract_z 
_atom_site_charge 
O1          O  0.50590241  0.52571294  0.08187206    -0.79600
O2          O  0.47294866  0.49677288  0.93210697    -0.79700
O3          O  0.54144109  0.56113995  0.98589418    -0.79700
O4          O  0.43085470  0.47769440  0.03204241    -0.79600
O5          O  0.49909416  0.54836523  0.96153145    -0.79700
O6          O  0.45584204  0.52185180  0.04332528    -0.79600
O7          O  0.43475724  0.48808687  0.96711284    -0.79600
O8          O  0.51574887  0.55314855  0.03808642    -0.79700
C9          C  0.51050990  0.55231906  0.06807168     1.10100
C10         C  0.44388295  0.49640457  0.93984145     1.09900
C11         C  0.52002989  0.56914971  0.96783845     1.10100
C12         C  0.43149093  0.50465641  0.04548328     1.10000
O13         O  0.48071626  0.46164697  0.06773766    -0.79600
O14         O  0.53763733  0.51153477  0.92462798    -0.79700
O15         O  0.56832391  0.51391223  0.03390284    -0.79600
O16         O  0.47586952  0.43391714  0.96138954    -0.79600
O17         O  0.52231969  0.45540012  0.95047018    -0.79700
O18         O  0.53927917  0.47643862  0.05176316    -0.79600
O19         O  0.47720852  0.42902177  0.02667660    -0.79600
O20         O  0.56424130  0.50687259  0.96949191    -0.79700
Co21       Co  0.49807113  0.50041542  0.04508951     1.51500
Co22       Co  0.51087344  0.50109385  0.95909144     1.51700
Co23       Co  0.53342522  0.52058709  0.00564604     1.51600
Co24       Co  0.45727168  0.45930015  0.99691055     1.51500
O25         O  0.49482227  0.48948537  0.00082540    -1.41600
C26         C  0.48023716  0.43344631  0.05607565     1.10000
C27         C  0.56369295  0.50763476  0.93901073     1.10100
C28         C  0.56580196  0.49018518  0.05083679     1.10000
C29         C  0.50236431  0.43308259  0.94726773     1.10000
C30         C  0.23598313  0.48299669  0.19776632     0.80700
N31         N  0.21850218  0.46396624  0.17876367    -0.77600
C32         C  0.19013452  0.45257245  0.18836757     0.83200
N33         N  0.17905847  0.46014915  0.21745146    -0.77500
C34         C  0.19610776  0.47908912  0.23698843     0.83300
N35         N  0.22471845  0.49055999  0.22705654    -0.79200
C36         C  0.79921838  0.47484874  0.23951377     0.80700
N37         N  0.77131417  0.48439285  0.22649240    -0.77600
C38         C  0.75938668  0.46828537  0.20126811     0.83200
N39         N  0.77527626  0.44242076  0.18975389    -0.77500
C40         C  0.80279663  0.43260740  0.20279378     0.83300
N41         N  0.81475319  0.44909443  0.22735639    -0.79200
C42         C  0.24788676  0.50601596  0.79350544     0.80700
N43         N  0.22665920  0.49167397  0.81277686    -0.77600
C44         C  0.19788801  0.48274070  0.80234756     0.83200
N45         N  0.18971608  0.48893910  0.77234381    -0.77500
C46         C  0.21018784  0.50373470  0.75250378     0.83300
N47         N  0.23974130  0.51180082  0.76300467    -0.79200
C48         C  0.79423055  0.46241491  0.74393343     0.80700
N49         N  0.76731181  0.47611301  0.75606615    -0.77600
C50         C  0.75148573  0.46180572  0.78027415     0.83200
N51         N  0.76286292  0.43394539  0.79201625    -0.77500
C52         C  0.78946901  0.42029545  0.77996893     0.83300
N53         N  0.80492847  0.43471817  0.75625383    -0.79200
N54         N  0.98072570  0.32091700  0.93236848    -0.36100
N55         N  0.93246982  0.30985168  0.98048428    -0.56700
N56         N  0.97559938  0.32939802  0.02984664    -0.36100
N57         N  0.02255639  0.34452611  0.98144562    -0.56700
C58         C  0.95444058  0.31810206  0.91475110     0.27500
C59         C  0.00259564  0.33656744  0.91523543     0.27500
C60         C  0.94728800  0.33077741  0.04490947     0.27500
C61         C  0.99543188  0.34911426  0.04534624     0.27500
C62         C  0.91840293  0.29616484  0.95546515     0.36100
C63         C  0.91566378  0.30086620  0.00596801     0.36100
C64         C  0.04275985  0.34537300  0.95675962     0.36100
C65         C  0.04017592  0.34939418  0.00735811     0.36100
C66         C  0.95994287  0.33170382  0.88562052    -0.21400
C67         C  0.99031609  0.34320812  0.88590203    -0.21400
C68         C  0.94942316  0.35144795  0.07039924    -0.21400
C69         C  0.97985144  0.36261856  0.07090372    -0.21400
C70         C  0.89286603  0.27799973  0.96516314    -0.22400
C71         C  0.89096549  0.28121382  0.99717880    -0.22400
C72         C  0.07337487  0.35057209  0.96707463    -0.22400
C73         C  0.07170378  0.35331997  0.99914170    -0.22400
C74         C  0.92560893  0.30364556  0.92395370    -0.17800
C75         C  0.03335409  0.34513781  0.92499659    -0.17800
C76         C  0.02742168  0.35479341  0.03757153    -0.17800
C77         C  0.91968945  0.31382217  0.03624421    -0.17800
H78         H  0.94366731  0.33367793  0.86623295     0.15100
H79         H  0.00180925  0.35564011  0.86683768     0.15100
H80         H  0.93097858  0.35854673  0.08673781     0.15100
H81         H  0.98918691  0.37938172  0.08784144     0.15100
H82         H  0.87657446  0.26484196  0.95055515     0.13400
H83         H  0.87294340  0.27106461  0.01219683     0.13400
H84         H  0.09455938  0.35312341  0.95291443     0.13400
H85         H  0.09129601  0.35862596  0.01450237     0.13400
H86         H  0.98397075  0.31157122  0.95545054     0.26700
H87         H  0.98145437  0.31493963  0.01051878     0.26700
O88         O  0.06267617  0.48057465  0.47340201    -0.79600
O89         O  0.92284985  0.52101071  0.51903366    -0.79700
O90         O  0.96775976  0.49824360  0.42644044    -0.79700
O91         O  0.01399583  0.57328417  0.49563661    -0.79600
O92         O  0.93003574  0.50300462  0.46098320    -0.79700
O93         O  0.05377231  0.54063439  0.49011565    -0.79600
O94         O  0.95192615  0.56113786  0.50456037    -0.79600
O95         O  0.03053397  0.49313580  0.43563530    -0.79700
C96         C  0.05809101  0.48611811  0.44455228     1.10100
C97         C  0.92522034  0.55031198  0.51250061     1.09900
C98         C  0.93978767  0.50594367  0.43316872     1.10100
C99         C  0.04215617  0.56823825  0.48737936     1.10000
O100        O  0.07048293  0.50040620  0.53534921    -0.79600
O101        O  0.91789802  0.45784208  0.50289596    -0.79700
O102        O  0.01964581  0.43874732  0.47688696    -0.79600
O103        O  0.96745207  0.52195933  0.55834624    -0.79600
O104        O  0.96613684  0.47265134  0.54127709    -0.79700
O105        O  0.02355623  0.45807599  0.52461825    -0.79600
O106        O  0.03242005  0.53442699  0.55054433    -0.79600
O107        O  0.95432412  0.44258343  0.46760867    -0.79700
Co108      Co  0.03552051  0.50010284  0.50799090     1.51500
Co109      Co  0.95129040  0.48705295  0.50007911     1.51700
Co110      Co  0.99324102  0.47168381  0.45452459     1.51600
Co111      Co  0.99135214  0.54459467  0.52397712     1.51500
O112        O  0.99256593  0.50703919  0.49039137    -1.41600
C113        C  0.05947897  0.52016926  0.55537583     1.10000
C114        C  0.92850546  0.43714044  0.48368647     1.10100
C115        C  0.02577542  0.43485420  0.50574827     1.10000
C116        C  0.96216684  0.49263930  0.56318303     1.10000
C117        C  0.52858144  0.74968181  0.22222966     0.80700
N118        N  0.55005758  0.76828669  0.20697540    -0.77600
C119        C  0.55813855  0.79718968  0.21887767     0.83200
N120        N  0.54445353  0.80760189  0.24576234    -0.77500
C121        C  0.52291309  0.78978918  0.26135928     0.83300
N122        N  0.51507419  0.76050852  0.24964326    -0.79200
C123        C  0.51940619  0.24198820  0.21083355     0.80700
N124        N  0.53585969  0.22338701  0.19016298    -0.77600
C125        C  0.54538092  0.19366671  0.19771135     0.83200
N126        N  0.53802908  0.18198499  0.22637035    -0.77500
C127        C  0.52124104  0.19981154  0.24757608     0.83300
N128        N  0.51192136  0.23003217  0.23972760    -0.79200
C129        C  0.54927493  0.19863650  0.76236634     0.80700
N130        N  0.57235082  0.18361560  0.77897672    -0.77600
C131        C  0.58631495  0.19846358  0.80368607     0.83200
N132        N  0.57716703  0.22841828  0.81175064    -0.77500
C133        C  0.55391790  0.24369483  0.79591452     0.83300
N134        N  0.53979864  0.22860391  0.77125615    -0.79200
C135        C  0.53996665  0.78746048  0.76011236     0.80700
N136        N  0.52881363  0.76103304  0.77507245    -0.77600
C137        C  0.54143665  0.75208089  0.80318454     0.83200
N138        N  0.56523789  0.76955045  0.81587081    -0.77500
C139        C  0.57659304  0.79550236  0.80092265     0.83300
N140        N  0.56383665  0.80426960  0.77332157    -0.79200
N141        N  0.69713543  0.02979651  0.00591782    -0.36100
N142        N  0.71086478  0.97820386  0.96194121    -0.56700
N143        N  0.71703963  0.93187202  0.01232753    -0.36100
N144        N  0.69943659  0.98323146  0.05622356    -0.56700
C145        C  0.68777708  0.04321267  0.97861567     0.27500
C146        C  0.68318012  0.04647670  0.02964659     0.27500
C147        C  0.71460916  0.91241195  0.98699590     0.27500
C148        C  0.70764014  0.91491211  0.03757232     0.27500
C149        C  0.71175960  0.00320336  0.94223939     0.36100
C150        C  0.72312073  0.95312268  0.94592721     0.36100
C151        C  0.69698351  0.01022459  0.07359897     0.36100
C152        C  0.70506686  0.95933143  0.07654000     0.36100
C153        C  0.66825096  0.06910121  0.98521685    -0.21400
C154        C  0.66592437  0.07156742  0.01727724    -0.21400
C155        C  0.70488131  0.88244174  0.99648007    -0.21400
C156        C  0.70053418  0.88400860  0.02834057    -0.21400
C157        C  0.72492937  0.99406281  0.91368097    -0.22400
C158        C  0.73230088  0.96231787  0.91608416    -0.22400
C159        C  0.70128256  0.00338163  0.10507270    -0.22400
C160        C  0.70637235  0.97114397  0.10690675    -0.22400
C161        C  0.69651776  0.03261595  0.94803077    -0.17800
C162        C  0.68598760  0.03974383  0.06209724    -0.17800
C163        C  0.70436710  0.92661089  0.06859794    -0.17800
C164        C  0.71970074  0.92120539  0.95543417    -0.17800
H165        H  0.65649987  0.08466823  0.96886577     0.15100
H166        H  0.65256187  0.08972388  0.02975449     0.15100
H167        H  0.70041925  0.86172244  0.98195696     0.15100
H168        H  0.69211621  0.86473014  0.04284704     0.15100
H169        H  0.72769603  0.00847421  0.89290547     0.13400
H170        H  0.74152744  0.94721216  0.89743640     0.13400
H171        H  0.69953287  0.01964529  0.12482680     0.13400
H172        H  0.70946065  0.95770772  0.12824425     0.13400
H173        H  0.71261838  0.01093416  0.00832271     0.26700
H174        H  0.72456352  0.95542858  0.01236686     0.26700
C175        C  0.17066295  0.77534253  0.51826105     0.80700
N176        N  0.15448185  0.78882063  0.54259370    -0.77600
C177        C  0.16543928  0.81499626  0.55761994     0.83200
N178        N  0.19307952  0.82809062  0.54805613    -0.77500
C179        C  0.20998400  0.81507712  0.52379564     0.83300
N180        N  0.19870044  0.78848082  0.50888358    -0.79200
C181        C  0.72886853  0.20667771  0.50621782     0.80700
N182        N  0.74152464  0.19067794  0.53060571    -0.77600
C183        C  0.76747511  0.20137057  0.54553800     0.83200
N184        N  0.78165421  0.22849412  0.53567354    -0.77500
C185        C  0.76957328  0.24507496  0.51108193     0.83300
N186        N  0.74272223  0.23434365  0.49662143    -0.79200
C187        C  0.16196462  0.22487878  0.52190322     0.80700
N188        N  0.14240337  0.20255472  0.53422285    -0.77600
C189        C  0.15272446  0.17233274  0.53870740     0.83200
N190        N  0.18274795  0.16434428  0.53080975    -0.77500
C191        C  0.20287120  0.18621477  0.51870961     0.83300
N192        N  0.19243635  0.21668634  0.51423139    -0.79200
C193        C  0.72263541  0.77260218  0.56450263     0.80700
N194        N  0.73632514  0.74821966  0.54769451    -0.77600
C195        C  0.76086445  0.73123040  0.56022487     0.83200
N196        N  0.77140185  0.73877375  0.58938882    -0.77500
C197        C  0.75754417  0.76238348  0.60642037     0.83300
N198        N  0.73346494  0.77925431  0.59375420    -0.79200
N199        N  0.93237276  0.03446684  0.67266614    -0.36100
N200        N  0.88203713  0.98996796  0.68568250    -0.56700
N201        N  0.92737506  0.93694206  0.68573101    -0.36100
N202        N  0.97716438  0.98138863  0.66955091    -0.56700
C203        C  0.90654679  0.05173455  0.66481676     0.27500
C204        C  0.95730698  0.04750237  0.65761179     0.27500
C205        C  0.89923734  0.92166594  0.68442641     0.27500
C206        C  0.94949946  0.91715632  0.67288468     0.27500
C207        C  0.86569557  0.01759498  0.68889599     0.36100
C208        C  0.86339791  0.96699557  0.69769006     0.36100
C209        C  0.99765324  0.00585289  0.66735309     0.36100
C210        C  0.99485406  0.95463342  0.67182427     0.36100
C211        C  0.91530586  0.07578754  0.64435737    -0.21400
C212        C  0.94740166  0.07343913  0.64025877    -0.21400
C213        C  0.90365268  0.89173063  0.67101304    -0.21400
C214        C  0.93528818  0.88882726  0.66392967    -0.21400
C215        C  0.83661440  0.01222964  0.70299731    -0.22400
C216        C  0.83519188  0.98013912  0.70871554    -0.22400
C217        C  0.02851597  0.99481240  0.66845612    -0.22400
C218        C  0.02681367  0.96234520  0.67090092    -0.22400
C219        C  0.87549991  0.04691744  0.67642208    -0.17800
C220        C  0.98892536  0.03716767  0.65965576    -0.17800
C221        C  0.98226883  0.92355714  0.66961539    -0.17800
C222        C  0.86967325  0.93404875  0.69496566    -0.17800
H223        H  0.90025417  0.09313566  0.63311399     0.15100
H224        H  0.96168213  0.08875754  0.62562526     0.15100
H225        H  0.88591231  0.87392106  0.66609559     0.15100
H226        H  0.94640833  0.86819447  0.65309582     0.15100
H227        H  0.81812032  0.02951239  0.70799766     0.13400
H228        H  0.81524565  0.96774164  0.71889070     0.13400
H229        H  0.05001298  0.00852483  0.66599002     0.13400
H230        H  0.04708382  0.94659245  0.67065738     0.13400
H231        H  0.93331940  0.01577851  0.68865670     0.26700
H232        H  0.93124917  0.95927388  0.69576467     0.26700
O233        O  0.46514010  0.93117637  0.48364506    -0.79600
O234        O  0.51900047  0.06234399  0.51064606    -0.79700
O235        O  0.48030965  0.03051873  0.44243246    -0.79700
O236        O  0.55586124  0.97243733  0.53610587    -0.79600
O237        O  0.46769735  0.07045798  0.47401270    -0.79700
O238        O  0.52297149  0.94514772  0.50651251    -0.79600
O239        O  0.53912234  0.01709137  0.49206736    -0.79600
O240        O  0.48066055  0.96526829  0.44870933    -0.79700
C241        C  0.47444706  0.93688556  0.45598632     1.10100
C242        C  0.54052816  0.04714137  0.49540764     1.09900
C243        C  0.47772162  0.06019417  0.44765527     1.10100
C244        C  0.55029503  0.94778498  0.51985688     1.10000
O245        O  0.47852076  0.92262237  0.54585384    -0.79600
O246        O  0.42612375  0.04776705  0.52230143    -0.79700
O247        O  0.41885775  0.96925010  0.48140670    -0.79600
O248        O  0.52620757  0.02595471  0.55720087    -0.79600
O249        O  0.47753286  0.04263878  0.56263045    -0.79700
O250        O  0.43191262  0.96639213  0.53147020    -0.79600
O251        O  0.49835043  0.96784873  0.56392655    -0.79600
O252        O  0.41904548  0.03331667  0.47279544    -0.79700
Co253      Co  0.47677079  0.95950321  0.52015679     1.51500
Co254      Co  0.47251206  0.05219478  0.51731502     1.51700
Co255      Co  0.45195509  0.99967098  0.46357473     1.51600
Co256      Co  0.51715926  0.99228218  0.52479306     1.51500
O257        O  0.47646652  0.00491109  0.50431375    -1.41600
C258        C  0.49003588  0.93847804  0.56842168     1.10000
C259        C  0.40883395  0.04593323  0.49815557     1.10100
C260        C  0.41174664  0.96270616  0.50987937     1.10000
C261        C  0.50531311  0.04054937  0.57324433     1.10000
C262        C  0.66647719  0.84588853  0.55447091     0.19200
C263        C  0.64506290  0.84197493  0.52953436    -0.18900
C264        C  0.62389796  0.86678761  0.52162561    -0.11200
C265        C  0.62406039  0.89594325  0.53840257     0.21500
C266        C  0.64605602  0.89972747  0.56260163    -0.20500
C267        C  0.66665558  0.87513325  0.57063262    -0.11400
C268        C  0.60161697  0.92303769  0.53304648    -0.15500
C269        C  0.57423858  0.92170991  0.51698218    -0.29400
C270        C  0.68833325  0.82050761  0.56602540    -0.03600
C271        C  0.69810581  0.79392471  0.55046637    -0.40200
H272        H  0.64407926  0.81969732  0.51667169     0.12600
H273        H  0.60751802  0.86296817  0.50261081     0.12200
H274        H  0.64690304  0.92173328  0.57601218     0.11700
H275        H  0.68280188  0.87902011  0.58990811     0.11900
H276        H  0.60669520  0.94495314  0.54575131     0.14700
H277        H  0.56767775  0.90019141  0.50444574     0.13400
H278        H  0.69829223  0.82515876  0.58902404     0.11100
H279        H  0.68961811  0.78878251  0.52703050     0.13100
C280        C  0.81791278  0.85998814  0.70510424     0.19200
C281        C  0.82727149  0.82800762  0.70225059    -0.18900
C282        C  0.80723621  0.80575748  0.68817859    -0.11200
C283        C  0.77749009  0.81534494  0.67673906     0.21500
C284        C  0.76666561  0.84632305  0.68350526    -0.20500
C285        C  0.78665442  0.86849212  0.69759771    -0.11400
C286        C  0.75899628  0.79590170  0.65416072    -0.15500
C287        C  0.77198838  0.77269254  0.63620625    -0.29400
C288        C  0.84235661  0.88433304  0.71149903    -0.03600
C289        C  0.84191389  0.91249895  0.69668066    -0.40200
H290        H  0.85100796  0.82074784  0.70862128     0.12600
H291        H  0.81589592  0.78168550  0.68489105     0.12200
H292        H  0.74355245  0.85414918  0.67572613     0.11700
H293        H  0.77821225  0.89268521  0.70089061     0.11900
H294        H  0.73542395  0.80447668  0.64841301     0.14700
H295        H  0.79553860  0.76366893  0.64093892     0.13400
H296        H  0.86350749  0.87726893  0.72410618     0.11100
H297        H  0.82135039  0.91945916  0.68317407     0.13100
C298        C  0.33598703  0.10060929  0.51306030     0.19200
C299        C  0.33211126  0.13219916  0.52374430    -0.18900
C300        C  0.30274790  0.14783665  0.52141659    -0.11200
C301        C  0.27655173  0.13198044  0.50856393     0.21500
C302        C  0.28050332  0.10051445  0.49780909    -0.20500
C303        C  0.30972309  0.08499180  0.50000932    -0.11400
C304        C  0.24390813  0.14542337  0.50959556    -0.15500
C305        C  0.23617567  0.17662254  0.51212501    -0.29400
C306        C  0.36735710  0.08438345  0.51638088    -0.03600
C307        C  0.37663301  0.05989742  0.49779911    -0.40200
H308        H  0.35181995  0.14474020  0.53414909     0.12600
H309        H  0.30037875  0.17177042  0.53075773     0.12200
H310        H  0.26059065  0.08751414  0.48834568     0.11700
H311        H  0.31120125  0.06040841  0.49237328     0.11900
H312        H  0.22488401  0.12807623  0.50910133     0.14700
H313        H  0.25420140  0.19487449  0.51055464     0.13400
H314        H  0.38405285  0.09416525  0.53312233     0.11100
H315        H  0.36132530  0.05176760  0.47909642     0.13100
C316        C  0.04395005  0.08393450  0.60573263     0.19200
C317        C  0.06197615  0.07658338  0.57892421    -0.18900
C318        C  0.08160289  0.09947096  0.56553655    -0.11200
C319        C  0.08321658  0.13026245  0.57863722     0.21500
C320        C  0.06431836  0.13797028  0.60473305    -0.20500
C321        C  0.04489323  0.11501940  0.61827763    -0.11400
C322        C  0.10384368  0.15498139  0.56512495    -0.15500
C323        C  0.13181375  0.14783232  0.55169651    -0.29400
C324        C  0.02311165  0.05925086  0.61900489    -0.03600
C325        C  0.01364735  0.05939804  0.64908211    -0.40200
H326        H  0.06098874  0.05302511  0.56843091     0.12600
H327        H  0.09507518  0.09317014  0.54469651     0.12200
H328        H  0.06479015  0.16173781  0.61479864     0.11700
H329        H  0.03023699  0.12194101  0.63810702     0.11900
H330        H  0.09661607  0.17974928  0.56779299     0.14700
H331        H  0.14028092  0.12335765  0.55112391     0.13400
H332        H  0.01479810  0.04044965  0.60346648     0.11100
H333        H  0.02189159  0.07720626  0.66562214     0.13100
C334        C  0.66222335  0.14628026  0.48737792     0.19200
C335        C  0.66171021  0.11282281  0.48850379    -0.18900
C336        C  0.63325143  0.09606561  0.48691411    -0.11200
C337        C  0.60424375  0.11236035  0.48414364     0.21500
C338        C  0.60479168  0.14580709  0.48163199    -0.20500
C339        C  0.63346289  0.16265791  0.48311313    -0.11400
C340        C  0.57322613  0.09570661  0.48795077    -0.15500
C341        C  0.56934163  0.06393558  0.48441559    -0.29400
C342        C  0.69256800  0.16245529  0.49522868    -0.03600
C343        C  0.69971463  0.19363951  0.49144228    -0.40200
H344        H  0.68342112  0.09952046  0.49209272     0.12600
H345        H  0.63414709  0.07051378  0.48976374     0.12200
H346        H  0.58282031  0.15905219  0.47975844     0.11700
H347        H  0.63278241  0.18841215  0.48263483     0.11900
H348        H  0.55317348  0.11005465  0.49583769     0.14700
H349        H  0.58845892  0.04930468  0.47503249     0.13400
H350        H  0.71015867  0.14731085  0.50626654     0.11100
H351        H  0.68404343  0.20946609  0.47878973     0.13100
C352        C  0.84024981  0.12860044  0.66012740     0.19200
C353        C  0.80830713  0.12608733  0.65168755    -0.18900
C354        C  0.79508265  0.14774713  0.63074394    -0.11200
C355        C  0.81374013  0.17200436  0.61745720     0.21500
C356        C  0.84484882  0.17596952  0.62796574    -0.20500
C357        C  0.85796513  0.15449593  0.64919461    -0.11400
C358        C  0.80192277  0.19255402  0.59177688    -0.15500
C359        C  0.77941083  0.18258475  0.57197095    -0.29400
C360        C  0.85690958  0.10297255  0.67711925    -0.03600
C361        C  0.85113713  0.07202181  0.67112175    -0.40200
H362        H  0.79377136  0.10698156  0.66063242     0.12600
H363        H  0.77043855  0.14497677  0.62464139     0.12200
H364        H  0.85952354  0.19476951  0.61857706     0.11700
H365        H  0.88261603  0.15699651  0.65557638     0.11900
H366        H  0.81323102  0.21540234  0.58791796     0.14700
H367        H  0.76895546  0.15923165  0.57485305     0.13400
H368        H  0.87855534  0.10922249  0.68931787     0.11100
H369        H  0.83001857  0.06501520  0.65850355     0.13100
C370        C  0.28045409  0.87496157  0.51941297     0.19200
C371        C  0.29123522  0.89836118  0.54052299    -0.18900
C372        C  0.31764057  0.91713526  0.53353718    -0.11200
C373        C  0.33425741  0.91303217  0.50506643     0.21500
C374        C  0.32323636  0.88995025  0.48367560    -0.20500
C375        C  0.29675351  0.87105025  0.49072023    -0.11400
C376        C  0.36291178  0.93229638  0.49677868    -0.15500
C377        C  0.38098062  0.94774049  0.51802896    -0.29400
C378        C  0.25141258  0.85662899  0.52818175    -0.03600
C379        C  0.23993796  0.83056272  0.51322362    -0.40200
H380        H  0.27901035  0.90232639  0.56264059     0.12600
H381        H  0.32449212  0.93512890  0.55039350     0.12200
H382        H  0.33530144  0.88638089  0.46141886     0.11700
H383        H  0.28901988  0.85383763  0.47346255     0.11900
H384        H  0.37071848  0.93186053  0.47243978     0.14700
H385        H  0.37502995  0.94664620  0.54276186     0.13400
H386        H  0.23866907  0.86538286  0.54874756     0.11100
H387        H  0.25228093  0.82045903  0.49309020     0.13100
C388        C  0.09681127  0.83429325  0.61502770     0.19200
C389        C  0.06450883  0.82675144  0.61369775    -0.20100
C390        C  0.04249202  0.84298121  0.63251323    -0.11200
C391        C  0.05242061  0.86695685  0.65331872     0.21500
C392        C  0.08488748  0.87311841  0.65621467    -0.20500
C393        C  0.10696152  0.85707697  0.63711528    -0.11400
C394        C  0.02929553  0.88736565  0.67045961    -0.15500
C395        C  0.00284201  0.89781911  0.65645922    -0.29400
C396        C  0.11869295  0.81813278  0.59255066    -0.03600
C397        C  0.14671424  0.83012862  0.58316421    -0.40200
H398        H  0.05611926  0.80891383  0.59729307     0.12600
H399        H  0.01766056  0.83712061  0.63040246     0.12200
H400        H  0.09305253  0.89129573  0.67236657     0.11700
H401        H  0.13176240  0.86276517  0.63959291     0.11900
H402        H  0.03586519  0.89716430  0.69314272     0.14700
H403        H  0.99670125  0.88882199  0.63335759     0.13400
H404        H  0.11008785  0.79650712  0.58140503     0.11100
H405        H  0.15540588  0.85229471  0.59299854     0.13100
C406        C  0.50214798  0.87628369  0.63498944     0.19200
C407        C  0.49859514  0.84299933  0.63766502    -0.18900
C408        C  0.50779709  0.82686352  0.66498816    -0.11200
C409        C  0.52098781  0.84373748  0.69027771     0.21500
C410        C  0.52444318  0.87688545  0.68762076    -0.20500
C411        C  0.51515053  0.89296470  0.66057246    -0.11400
C412        C  0.53352585  0.82824451  0.71909199    -0.15500
C413        C  0.52581583  0.79911317  0.73026727    -0.29400
C414        C  0.49357517  0.89222921  0.60473599    -0.03600
C415        C  0.49430123  0.92407654  0.59984072    -0.40200
H416        H  0.48901260  0.82931670  0.61833571     0.12600
H417        H  0.50534334  0.80124348  0.66585838     0.12200
H418        H  0.53477575  0.89054459  0.70659204     0.11700
H419        H  0.51900437  0.91833918  0.65992445     0.11900
H420        H  0.54974978  0.84276182  0.73266653     0.14700
H421        H  0.50856498  0.78443162  0.71828846     0.13400
H422        H  0.48748913  0.87679906  0.58513115     0.11100
H423        H  0.50034779  0.94036860  0.61861237     0.13100
C424        C  0.67334962  0.87732712  0.89156226     0.19200
C425        C  0.65298004  0.88774194  0.86792806    -0.18900
C426        C  0.63418583  0.86619465  0.85162256    -0.11200
C427        C  0.63545586  0.83348142  0.85847291     0.21500
C428        C  0.65611819  0.82291193  0.88188890    -0.20500
C429        C  0.67504525  0.84459042  0.89827286    -0.11400
C430        C  0.61378041  0.81046488  0.84320739    -0.15500
C431        C  0.60123297  0.81571790  0.81482071    -0.29400
C432        C  0.68867052  0.90192878  0.91118189    -0.03600
C433        C  0.71289782  0.89683674  0.93087818    -0.40200
H434        H  0.65075599  0.91289546  0.86277556     0.12600
H435        H  0.61772475  0.87559617  0.83469190     0.12200
H436        H  0.65713514  0.79791078  0.88793586     0.11700
H437        H  0.68971617  0.83575405  0.91700726     0.11900
H438        H  0.60763076  0.78897877  0.85588935     0.14700
H439        H  0.60853182  0.83621370  0.80126778     0.13400
H440        H  0.67764631  0.92540615  0.91103989     0.11100
H441        H  0.72413381  0.87361269  0.93231743     0.13100
C442        C  0.50943080  0.09913219  0.64444380     0.19200
C443        C  0.49957626  0.13093081  0.64904237    -0.18900
C444        C  0.50995234  0.14883364  0.67501141    -0.11200
C445        C  0.53026664  0.13516526  0.69735583     0.21500
C446        C  0.53957500  0.10319236  0.69294480    -0.20500
C447        C  0.52930863  0.08540263  0.66702036    -0.11400
C448        C  0.54315223  0.15294887  0.72514410    -0.15500
C449        C  0.53450121  0.18261309  0.73472412    -0.29400
C450        C  0.49838702  0.08098288  0.61614122    -0.03600
C451        C  0.51448137  0.05615050  0.60324990    -0.40200
H452        H  0.48415522  0.14216886  0.63216461     0.12600
H453        H  0.50225096  0.17334347  0.67710118     0.12200
H454        H  0.55499605  0.09179351  0.70972148     0.11700
H455        H  0.53676709  0.06078257  0.66502032     0.11900
H456        H  0.56103241  0.14053477  0.73865971     0.14700
H457        H  0.51639646  0.19569490  0.72228216     0.13400
H458        H  0.47742059  0.08973185  0.60427172     0.11100
H459        H  0.53686235  0.04876972  0.61326126     0.13100
C460        C  0.67158022  0.09859312  0.88989914     0.19200
C461        C  0.66624643  0.13130592  0.89417789    -0.18900
C462        C  0.64863864  0.14868826  0.87251859    -0.11200
C463        C  0.63619720  0.13378937  0.84554747     0.21500
C464        C  0.64238428  0.10117900  0.84081445    -0.20500
C465        C  0.65995976  0.08376032  0.86258895    -0.11400
C466        C  0.61534280  0.15072910  0.82281681    -0.15500
C467        C  0.61027135  0.18244276  0.82322476    -0.29400
C468        C  0.68815990  0.08085913  0.91511416    -0.03600
C469        C  0.68410173  0.04955995  0.92003763    -0.40200
H470        H  0.67487817  0.14333457  0.91497519     0.12600
H471        H  0.64429508  0.17349503  0.87784243     0.12200
H472        H  0.63328223  0.08900158  0.82030944     0.11700
H473        H  0.66428254  0.05877668  0.85783629     0.11900
H474        H  0.60273073  0.13629188  0.80577248     0.14700
H475        H  0.62263471  0.19761714  0.83963856     0.13400
H476        H  0.70184074  0.09445936  0.93200673     0.11100
H477        H  0.67049322  0.03536041  0.90367247     0.13100
C478        C  0.49568482  0.09754528  0.36587553     0.19200
C479        C  0.50185004  0.08391640  0.33632186    -0.18900
C480        C  0.50861038  0.10285551  0.31039512    -0.11200
C481        C  0.50910655  0.13621717  0.31287092     0.21500
C482        C  0.50249109  0.15030808  0.34229513    -0.20500
C483        C  0.49587857  0.13116001  0.36858818    -0.11400
C484        C  0.51817287  0.15439659  0.28418495    -0.15500
C485        C  0.51237377  0.18557967  0.27846099    -0.29400
C486        C  0.48925368  0.07525198  0.39248188    -0.03600
C487        C  0.48497693  0.08377972  0.42275601    -0.40200
H488        H  0.50177750  0.05827294  0.33323377     0.12600
H489        H  0.51360131  0.09120929  0.28813073     0.12200
H490        H  0.50303125  0.17592131  0.34522845     0.11700
H491        H  0.49108048  0.14288162  0.39076453     0.11900
H492        H  0.52942315  0.14028620  0.26573377     0.14700
H493        H  0.50009776  0.20028871  0.29572876     0.13400
H494        H  0.48792925  0.05003868  0.38665114     0.11100
H495        H  0.48573866  0.10864295  0.42970031     0.13100
C496        C  0.62707454  0.09009076  0.11132049     0.19200
C497        C  0.59977169  0.10718969  0.10324530    -0.18900
C498        C  0.58406764  0.12624407  0.12545103    -0.11200
C499        C  0.59516676  0.12822166  0.15643159     0.21500
C500        C  0.62225035  0.11072879  0.16464249    -0.20500
C501        C  0.63829833  0.09204567  0.14223071    -0.11400
C502        C  0.57820861  0.14734803  0.18078611    -0.15500
C503        C  0.56249906  0.17433370  0.17396721    -0.29400
C504        C  0.64179433  0.06872069  0.08753701    -0.03600
C505        C  0.67308125  0.06291450  0.08557446    -0.40200
H506        H  0.59046873  0.10565151  0.07967076     0.12600
H507        H  0.56274512  0.13864567  0.11850907     0.12200
H508        H  0.63099970  0.11155102  0.18844992     0.11700
H509        H  0.65881504  0.07841498  0.14934741     0.11900
H510        H  0.57977676  0.13974008  0.20503144     0.14700
H511        H  0.56293910  0.18334200  0.15016531     0.13400
H512        H  0.62626264  0.05790784  0.07028580     0.11100
H513        H  0.68914475  0.07330525  0.10252951     0.13100
C514        C  0.48420037  0.89397297  0.37524271     0.19200
C515        C  0.48432461  0.90599911  0.34464335    -0.18900
C516        C  0.49048819  0.88619558  0.31892743    -0.11200
C517        C  0.49656007  0.85357730  0.32280562     0.21500
C518        C  0.49514888  0.84087913  0.35325049    -0.20500
C519        C  0.48904511  0.86094239  0.37932125    -0.11400
C520        C  0.50808273  0.83544100  0.29476871    -0.15500
C521        C  0.50786232  0.80348405  0.29025574    -0.29400
C522        C  0.48088996  0.91756749  0.40151941    -0.03600
C523        C  0.47718954  0.91086736  0.43222494    -0.40200
H524        H  0.48056217  0.93118332  0.34057492     0.12600
H525        H  0.49147733  0.89672234  0.29581578     0.12200
H526        H  0.50022523  0.81592560  0.35710556     0.11700
H527        H  0.48934775  0.85067054  0.40248132     0.11900
H528        H  0.51751478  0.85011898  0.27603024     0.14700
H529        H  0.49674432  0.78787178  0.30719632     0.13400
H530        H  0.48148977  0.94252714  0.39490159     0.11100
H531        H  0.47515786  0.88644812  0.44004791     0.13100
C532        C  0.64956141  0.88206536  0.12562491     0.19200
C533        C  0.62286091  0.89120971  0.14327345    -0.18900
C534        C  0.60532163  0.86869944  0.15972455    -0.11200
C535        C  0.61409635  0.83632079  0.15893893     0.21500
C536        C  0.64059138  0.82699281  0.14105027    -0.20500
C537        C  0.65831942  0.84962886  0.12463003    -0.11400
C538        C  0.59504205  0.81197763  0.17558908    -0.15500
C539        C  0.57985523  0.81895506  0.20255421    -0.29400
C540        C  0.66545678  0.90675008  0.10647546    -0.03600
C541        C  0.69416997  0.90352375  0.09292690    -0.40200
H542        H  0.61518916  0.91588139  0.14393272     0.12600
H543        H  0.58435489  0.87665445  0.17230348     0.12200
H544        H  0.64750671  0.80213281  0.13970877     0.11700
H545        H  0.67810941  0.84137789  0.11051603     0.11900
H546        H  0.59370749  0.78809557  0.16570224     0.14700
H547        H  0.58300411  0.84225219  0.21331132     0.13400
H548        H  0.65204799  0.92843192  0.10203598     0.11100
H549        H  0.70821777  0.88212182  0.09609806     0.13100
C550        C  0.83222714  0.31216866  0.50112611     0.19200
C551        C  0.86555883  0.31245495  0.50042756    -0.18900
C552        C  0.88227255  0.34097773  0.49627881    -0.11200
C553        C  0.86597360  0.37008569  0.49332442     0.21500
C554        C  0.83267626  0.36979234  0.49397355    -0.20500
C555        C  0.81595930  0.34120585  0.49749452    -0.11400
C556        C  0.88273283  0.40135278  0.49284588    -0.15500
C557        C  0.91193244  0.40603956  0.48053501    -0.29400
C558        C  0.81549400  0.28183879  0.50873965    -0.03600
C559        C  0.78533409  0.27492133  0.50063566    -0.40200
H560        H  0.87875667  0.29054239  0.50365736     0.12600
H561        H  0.90788576  0.34035715  0.49676061     0.12200
H562        H  0.81950999  0.39191685  0.49226877     0.11700
H563        H  0.79037879  0.34214936  0.49873655     0.11900
H564        H  0.87015299  0.42159535  0.50307955     0.14700
H565        H  0.92414385  0.38666461  0.46845912     0.13400
H566        H  0.82897938  0.26416331  0.52158776     0.11100
H567        H  0.77209008  0.29111211  0.48589314     0.13100
C568        C  0.82888847  0.67617809  0.53111008     0.19200
C569        C  0.81987850  0.64397819  0.53173000    -0.18900
C570        C  0.84186814  0.61976725  0.52391577    -0.11200
C571        C  0.87319949  0.62744471  0.51505812     0.21500
C572        C  0.88126976  0.65979263  0.51282970    -0.20500
C573        C  0.85960170  0.68373902  0.52110903    -0.11400
C574        C  0.89890123  0.60327408  0.50921984    -0.15500
C575        C  0.89710742  0.57177675  0.51533798    -0.29400
C576        C  0.80923358  0.70188034  0.54566728    -0.03600
C577        C  0.77772187  0.70583511  0.54207898    -0.40200
H578        H  0.79647357  0.63747058  0.53989593     0.12600
H579        H  0.83434460  0.59527448  0.52558146     0.12200
H580        H  0.90498496  0.66664776  0.50589185     0.11700
H581        H  0.86721524  0.70834414  0.52066616     0.11900
H582        H  0.92147093  0.61244515  0.50097006     0.14700
H583        H  0.87526472  0.56152196  0.52397595     0.13400
H584        H  0.82193864  0.71913345  0.55990112     0.11100
H585        H  0.76470382  0.69088966  0.52582664     0.13100
C586        C  0.07150268  0.35451629  0.50560388     0.19200
C587        C  0.09378871  0.34152629  0.48435888    -0.18900
C588        C  0.11079975  0.31381242  0.49153290    -0.11200
C589        C  0.10567952  0.29818276  0.52012961     0.21500
C590        C  0.08313642  0.31090653  0.54124165    -0.20500
C591        C  0.06636733  0.33884975  0.53422702    -0.11400
C592        C  0.12125482  0.26723601  0.52754804    -0.15500
C593        C  0.14950726  0.25739419  0.51576225    -0.29400
C594        C  0.05368990  0.38377593  0.49640534    -0.03600
C595        C  0.03916184  0.40413444  0.51663840    -0.40200
H596        H  0.09800734  0.35284298  0.46197773     0.12600
H597        H  0.12719301  0.30421326  0.47424883     0.12200
H598        H  0.07830252  0.29901462  0.56320743     0.11700
H599        H  0.04891904  0.34754707  0.55092111     0.11900
H600        H  0.10866623  0.25182401  0.54371211     0.14700
H601        H  0.16351600  0.27312765  0.50119170     0.13400
H602        H  0.05441242  0.38998110  0.47170382     0.11100
H603        H  0.03996420  0.39998934  0.54169248     0.13100
C604        C  0.10914257  0.71049856  0.49554831     0.19200
C605        C  0.12432376  0.68208085  0.48587155    -0.18900
C606        C  0.10653036  0.65434866  0.47987969    -0.11200
C607        C  0.07323792  0.65464696  0.48338199     0.21500
C608        C  0.05837082  0.68349515  0.49170374    -0.20500
C609        C  0.07597443  0.71083231  0.49778679    -0.11400
C610        C  0.05276145  0.62565607  0.48172622    -0.15500
C611        C  0.06279638  0.59524627  0.47797041    -0.29400
C612        C  0.12614822  0.73950313  0.50674691    -0.03600
C613        C  0.15710648  0.74665485  0.50248832    -0.40200
H614        H  0.14986087  0.68078921  0.48418731     0.12600
H615        H  0.11906386  0.63272724  0.47350082     0.12200
H616        H  0.03289441  0.68470342  0.49469861     0.11700
H617        H  0.06350602  0.73224235  0.50523304     0.11900
H618        H  0.02786167  0.62946995  0.48728466     0.14700
H619        H  0.08741699  0.59003110  0.47264851     0.13400
H620        H  0.11163459  0.75632409  0.52007380     0.11100
H621        H  0.17228379  0.73171998  0.48788206     0.13100
C622        C  0.90465726  0.49279527  0.63408512     0.19200
C623        C  0.87794417  0.51179434  0.64132426    -0.18900
C624        C  0.85659576  0.50307247  0.66515133    -0.11200
C625        C  0.86172281  0.47513843  0.68243491     0.21500
C626        C  0.88869965  0.45652012  0.67541354    -0.20500
C627        C  0.90988579  0.46516443  0.65168513    -0.11400
C628        C  0.84033045  0.46390309  0.70805038    -0.15500
C629        C  0.81275002  0.47738863  0.71803821    -0.29400
C630        C  0.92638999  0.50259764  0.60815694    -0.03600
C631        C  0.94625780  0.48257802  0.59249957    -0.40200
H632        H  0.87338032  0.53333916  0.62824317     0.12600
H633        H  0.83631519  0.51822434  0.66982328     0.12200
H634        H  0.89352784  0.43499249  0.68843758     0.11700
H635        H  0.93047391  0.45026636  0.64757967     0.11900
H636        H  0.84822934  0.44229063  0.71952575     0.14700
H637        H  0.80376890  0.49903185  0.70754312     0.13400
H638        H  0.92393213  0.52689145  0.59980781     0.11100
H639        H  0.94727322  0.45751056  0.59836256     0.13100
C640        C  0.84843206  0.32097835  0.87959526     0.19200
C641        C  0.81813017  0.33147419  0.88878542    -0.18900
C642        C  0.79832641  0.34679399  0.86751905    -0.11200
C643        C  0.80851934  0.35214935  0.83666727     0.21500
C644        C  0.83727408  0.33824689  0.82645541    -0.20500
C645        C  0.85719003  0.32305741  0.84777486    -0.11400
C646        C  0.79048630  0.37535575  0.81743840    -0.15500
C647        C  0.80400204  0.39185375  0.79403454    -0.29400
C648        C  0.87153116  0.31344637  0.90460878    -0.03600
C649        C  0.90043378  0.30052846  0.89974725    -0.40200
H650        H  0.81059410  0.32980890  0.91305378     0.12600
H651        H  0.77601742  0.35660357  0.87587936     0.12200
H652        H  0.84532156  0.34029367  0.80244326     0.11700
H653        H  0.88014807  0.31511470  0.83947073     0.11900
H654        H  0.76683680  0.38206555  0.82533708     0.14700
H655        H  0.82790936  0.38632930  0.78630933     0.13400
H656        H  0.86566832  0.32240008  0.92792762     0.11100
H657        H  0.90733058  0.29188444  0.87667919     0.13100
C658        C  0.15412144  0.51491159  0.68074183     0.19200
C659        C  0.12107564  0.51899746  0.67909804    -0.18900
C660        C  0.10548493  0.52017974  0.65023916    -0.11200
C661        C  0.12250716  0.51719775  0.62190853     0.21500
C662        C  0.15567332  0.51363579  0.62342418    -0.20500
C663        C  0.17138301  0.51269998  0.65244916    -0.11400
C664        C  0.10615669  0.51475106  0.59084957    -0.15500
C665        C  0.07678533  0.52637392  0.58513813    -0.29400
C666        C  0.16846496  0.51028295  0.71245220    -0.03600
C667        C  0.19966390  0.51097642  0.71986184    -0.40200
H668        H  0.10699615  0.52046380  0.70040003     0.12600
H669        H  0.07993981  0.52205082  0.65038135     0.12200
H670        H  0.16944162  0.51093559  0.60203817     0.11700
H671        H  0.19674581  0.50905499  0.65258075     0.11900
H672        H  0.11874401  0.50238540  0.57203532     0.14700
H673        H  0.06453894  0.54037326  0.60298138     0.13400
H674        H  0.15161856  0.50583813  0.73127643     0.11100
H675        H  0.21732317  0.51707211  0.70235557     0.13100
C676        C  0.12965520  0.43326266  0.83679590     0.19200
C677        C  0.11612023  0.40389540  0.82872821    -0.18900
C678        C  0.09579290  0.38834920  0.84966584    -0.11200
C679        C  0.08833564  0.40221004  0.87903735     0.21500
C680        C  0.10131724  0.43199661  0.88658651    -0.20500
C681        C  0.12174519  0.44733967  0.86581024    -0.11400
C682        C  0.06692606  0.38719284  0.90248722    -0.15500
C683        C  0.05569463  0.35727105  0.90072958    -0.29400
C684        C  0.15135924  0.44920554  0.81441405    -0.03600
C685        C  0.17583146  0.46701050  0.82415144    -0.40200
H686        H  0.12158310  0.39279281  0.80630808     0.12600
H687        H  0.08594920  0.36578077  0.84246675     0.12200
H688        H  0.09569591  0.44349007  0.90878236     0.11700
H689        H  0.13095146  0.47045347  0.87234689     0.11900
H690        H  0.06006694  0.40160400  0.92274977     0.14700
H691        H  0.06075129  0.34205751  0.88067821     0.13400
H692        H  0.14807533  0.44494806  0.78947979     0.11100
H693        H  0.18087616  0.46899288  0.84902572     0.13100
C694        C  0.90174338  0.51372778  0.35123300     0.19200
C695        C  0.91397394  0.51592056  0.32065891    -0.18900
C696        C  0.89463396  0.51107137  0.29464323    -0.11200
C697        C  0.86240244  0.50396412  0.29833547     0.21500
C698        C  0.84947243  0.50352004  0.32884468    -0.20500
C699        C  0.86898405  0.50827318  0.35509506    -0.11400
C700        C  0.84496796  0.49226204  0.27029135    -0.15500
C701        C  0.81324024  0.49205762  0.26663737    -0.29400
C702        C  0.92479383  0.51293752  0.37767256    -0.03600
C703        C  0.91720948  0.51555556  0.40835618    -0.40200
H704        H  0.93901645  0.51996070  0.31684007     0.12600
H705        H  0.90529151  0.51142855  0.27146276     0.12200
H706        H  0.82486568  0.49746423  0.33257622     0.11700
H707        H  0.85862929  0.50574341  0.37819063     0.11900
H708        H  0.85954728  0.48230935  0.25147328     0.14700
H709        H  0.79776985  0.50391395  0.28352216     0.13400
H710        H  0.94929180  0.50774545  0.37142517     0.11100
H711        H  0.89314891  0.52133661  0.41548621     0.13100
C712        C  0.86793719  0.32428243  0.10989647     0.19200
C713        C  0.87741624  0.33209944  0.14047082    -0.18900
C714        C  0.85814257  0.35105647  0.15990546    -0.11200
C715        C  0.82888805  0.36263740  0.14901735     0.21500
C716        C  0.81818461  0.35227627  0.11959742    -0.20500
C717        C  0.83738329  0.33322873  0.10024152    -0.11400
C718        C  0.80955300  0.38673450  0.16648466    -0.15500
C719        C  0.82104067  0.40558808  0.18938194    -0.29400
C720        C  0.89190755  0.31046585  0.08789879    -0.03600
C721        C  0.89107619  0.31575225  0.05681411    -0.40200
H722        H  0.90058095  0.32502295  0.14875636     0.12600
H723        H  0.86675583  0.35715607  0.18296885     0.12200
H724        H  0.79541258  0.36011090  0.11092105     0.11700
H725        H  0.82850357  0.32652346  0.07742900     0.11900
H726        H  0.78558873  0.39096652  0.15831689     0.14700
H727        H  0.84502867  0.40249263  0.19770295     0.13400
H728        H  0.91361722  0.30098075  0.09781226     0.11100
H729        H  0.86993343  0.32531054  0.04604217     0.13100
C730        C  0.14515655  0.47713826  0.31319427     0.19200
C731        C  0.13240023  0.50770638  0.31858544    -0.18900
C732        C  0.11277199  0.51369949  0.34475262    -0.11200
C733        C  0.10625115  0.48961952  0.36662248     0.21500
C734        C  0.11972172  0.45928240  0.36163719    -0.20500
C735        C  0.13853170  0.45304212  0.33498433    -0.11400
C736        C  0.08262292  0.49567086  0.39227335    -0.15500
C737        C  0.08422043  0.48258803  0.42111323    -0.29400
C738        C  0.16194834  0.46873497  0.28330976    -0.03600
C739        C  0.18276848  0.48785169  0.26836297    -0.40200
H740        H  0.13632004  0.52653383  0.30180232     0.12600
H741        H  0.10222717  0.53711745  0.34768795     0.12200
H742        H  0.11448639  0.43996426  0.37750219     0.11700
H743        H  0.14753185  0.42912035  0.33106985     0.11900
H744        H  0.06303378  0.51162668  0.38708209     0.14700
H745        H  0.10480570  0.46850983  0.42746675     0.13400
H746        H  0.15708068  0.44537602  0.27333578     0.11100
H747        H  0.18998315  0.51012336  0.27920320     0.13100
C748        C  0.12244342  0.40728702  0.14844008     0.19200
C749        C  0.09106899  0.41632758  0.14263121    -0.18900
C750        C  0.07336007  0.40033506  0.11995084    -0.11200
C751        C  0.08666538  0.37465678  0.10290171     0.21500
C752        C  0.11754086  0.36463987  0.10982786    -0.20500
C753        C  0.13542574  0.38096206  0.13220899    -0.11400
C754        C  0.06867448  0.35763695  0.07823528    -0.15500
C755        C  0.04672914  0.37228730  0.06081619    -0.29400
C756        C  0.14107199  0.42576947  0.17148072    -0.03600
C757        C  0.17191026  0.43206217  0.16692645    -0.40200
H758        H  0.08045861  0.43623158  0.15523436     0.12600
H759        H  0.04919069  0.40793027  0.11608518     0.12200
H760        H  0.12804717  0.34454386  0.09744617     0.11700
H761        H  0.15930482  0.37291090  0.13690845     0.11900
H762        H  0.07419189  0.33272123  0.07354958     0.14700
H763        H  0.04157315  0.39743552  0.06421705     0.13400
H764        H  0.12855243  0.43663791  0.19121118     0.11100
H765        H  0.18383212  0.42334726  0.14587288     0.13100
C766        C  0.50954797  0.31703625  0.15778792     0.19200
C767        C  0.52123319  0.32262081  0.12737816    -0.18900
C768        C  0.51362284  0.35040683  0.11121878    -0.11200
C769        C  0.49387047  0.37381970  0.12483885     0.21500
C770        C  0.48262592  0.36879232  0.15563457    -0.20500
C771        C  0.49014324  0.34057268  0.17191830    -0.11400
C772        C  0.48620323  0.40392418  0.10747186    -0.15500
C773        C  0.48402563  0.40447707  0.07582297    -0.29400
C774        C  0.51862026  0.28612310  0.17269985    -0.03600
C775        C  0.50929018  0.27464926  0.20095017    -0.40200
H776        H  0.53650439  0.30526896  0.11583668     0.12600
H777        H  0.52384724  0.35369937  0.08814148     0.12200
H778        H  0.46772094  0.38657473  0.16696597     0.11700
H779        H  0.48079494  0.33739196  0.19534935     0.11900
H780        H  0.48250071  0.42577545  0.12081966     0.14700
H781        H  0.48562958  0.38206274  0.06300894     0.13400
H782        H  0.53416631  0.27117319  0.15842690     0.11100
H783        H  0.49404769  0.28860107  0.21638918     0.13100
C784        C  0.52285194  0.67711794  0.16440595     0.19200
C785        C  0.53447755  0.67212309  0.13377555    -0.18900
C786        C  0.52957684  0.64330044  0.11790880    -0.11200
C787        C  0.51262392  0.61842017  0.13215326     0.21500
C788        C  0.50103466  0.62323040  0.16281604    -0.20500
C789        C  0.50588664  0.65225312  0.17875567    -0.11400
C790        C  0.50859905  0.58674872  0.11631211    -0.15500
C791        C  0.50937623  0.58328678  0.08490146    -0.29400
C792        C  0.53023746  0.70820138  0.18024214    -0.03600
C793        C  0.51940782  0.71817677  0.20865810    -0.40200
H794        H  0.54791622  0.69053908  0.12209946     0.12600
H795        H  0.54003779  0.64040113  0.09483839     0.12200
H796        H  0.48826621  0.60439137  0.17454981     0.11700
H797        H  0.49674562  0.65472641  0.20237288     0.11900
H798        H  0.50570700  0.56580575  0.13084747     0.14700
H799        H  0.51074709  0.60428364  0.07027422     0.13400
H800        H  0.54573827  0.72405501  0.16730303     0.11100
H801        H  0.50332682  0.70354289  0.22214717     0.13100
C802        C  0.51465869  0.63683795  0.90766290     0.19200
C803        C  0.51041168  0.63552303  0.87505794    -0.18900
C804        C  0.51694452  0.66189076  0.85621521    -0.11200
C805        C  0.52775080  0.69046629  0.86966481     0.21500
C806        C  0.53144362  0.69202369  0.90242877    -0.20500
C807        C  0.52491805  0.66561185  0.92129669    -0.11400
C808        C  0.53750306  0.71842552  0.85051661    -0.15500
C809        C  0.52926915  0.72385190  0.82036014    -0.29400
C810        C  0.50831917  0.60746438  0.92607093    -0.03600
C811        C  0.52131436  0.60125971  0.95396960    -0.40200
H812        H  0.50262607  0.61366021  0.86394690     0.12600
H813        H  0.51434777  0.65939700  0.83112008     0.12200
H814        H  0.53967118  0.71375452  0.91347877     0.11700
H815        H  0.52783223  0.66793091  0.94638976     0.11900
H816        H  0.55227269  0.73583279  0.86233916     0.14700
H817        H  0.51317616  0.70797988  0.80827753     0.13400
H818        H  0.49479924  0.58872919  0.91474558     0.11100
H819        H  0.53719745  0.61837722  0.96470694     0.13100
C820        C  0.68011395  0.47599633  0.83752910     0.19200
C821        C  0.67062012  0.45952382  0.86457962    -0.18900
C822        C  0.64410552  0.46918501  0.88201650    -0.11200
C823        C  0.62616516  0.49580368  0.87295128     0.21500
C824        C  0.63539469  0.51233648  0.84583746    -0.20500
C825        C  0.66221105  0.50272454  0.82835597    -0.11400
C826        C  0.59692163  0.50552038  0.89048435    -0.15500
C827        C  0.59329307  0.50066441  0.92151386    -0.29400
C828        C  0.70834747  0.46344631  0.81992009    -0.03600
C829        C  0.72273918  0.47682327  0.79479745    -0.40200
H830        H  0.68365424  0.43870903  0.87219862     0.12600
H831        H  0.63726278  0.45514621  0.90211122     0.12200
H832        H  0.62179918  0.53275413  0.83816443     0.11700
H833        H  0.66843356  0.51601201  0.80761988     0.11900
H834        H  0.57817032  0.51738026  0.87765048     0.14700
H835        H  0.61277992  0.49093777  0.93492414     0.13400
H836        H  0.71826105  0.44140774  0.82886887     0.11100
H837        H  0.71407270  0.49901402  0.78517044     0.13100
C838        C  0.53670016  0.37710724  0.88139122     0.19200
C839        C  0.56638415  0.37429425  0.86654184    -0.18900
C840        C  0.57367289  0.34799593  0.84731339    -0.11200
C841        C  0.55118170  0.32416709  0.84154041     0.21500
C842        C  0.52082019  0.32764102  0.85495143    -0.20500
C843        C  0.51365420  0.35376091  0.87472555    -0.11400
C844        C  0.56153447  0.29430066  0.82510139    -0.15500
C845        C  0.54280559  0.27556372  0.80723760    -0.29400
C846        C  0.53104675  0.40470277  0.90343943    -0.03600
C847        C  0.50871187  0.40516019  0.92625147    -0.40200
H848        H  0.58448297  0.39199234  0.87072166     0.12600
H849        H  0.59728530  0.34591380  0.83740081     0.12200
H850        H  0.50305432  0.30951239  0.85130806     0.11700
H851        H  0.49014441  0.35538640  0.88481462     0.11900
H852        H  0.58608114  0.28720954  0.82832246     0.14700
H853        H  0.51893329  0.28323221  0.80164766     0.13400
H854        H  0.54657795  0.42515383  0.90134190     0.11100
H855        H  0.49322119  0.38482379  0.92899635     0.13100
C856        C  0.31299167  0.52097869  0.85587029     0.19200
C857        C  0.34212496  0.50827090  0.84529213    -0.18900
C858        C  0.36786765  0.50553396  0.86600157    -0.11200
C859        C  0.36486464  0.51542671  0.89762844     0.21500
C860        C  0.33627078  0.52938943  0.90749290    -0.20500
C861        C  0.31082375  0.53221679  0.88694687    -0.11400
C862        C  0.38943905  0.50900710  0.92184264    -0.15500
C863        C  0.42043539  0.50493754  0.91549825    -0.29400
C864        C  0.28291963  0.51871494  0.83771100    -0.03600
C865        C  0.27968980  0.51413243  0.80640537    -0.40200
H866        H  0.34453475  0.49881754  0.82171746     0.12600
H867        H  0.38935313  0.49410334  0.85761607     0.12200
H868        H  0.33320745  0.53724970  0.93158897     0.11700
H869        H  0.28873625  0.54202966  0.89587647     0.11900
H870        H  0.38153594  0.50779664  0.94612199     0.14700
H871        H  0.42912562  0.50790799  0.89169584     0.13400
H872        H  0.26139645  0.51978589  0.85183261     0.11100
H873        H  0.30005015  0.51505535  0.79079003     0.13100
C874        C  0.36462954  0.50073907  0.10798178     0.19200
C875        C  0.33795074  0.51658525  0.09609776    -0.18900
C876        C  0.30914309  0.51649925  0.11271417    -0.11200
C877        C  0.30645681  0.50134469  0.14192401     0.21500
C878        C  0.33361118  0.48707477  0.15466997    -0.20500
C879        C  0.36224907  0.48648021  0.13768794    -0.11400
C880        C  0.27429569  0.49638143  0.15577082    -0.15500
C881        C  0.26774120  0.49370848  0.18674962    -0.29400
C882        C  0.39347857  0.49480612  0.08825774    -0.03600
C883        C  0.40437312  0.51450803  0.06571294    -0.40200
H884        H  0.33869075  0.52724747  0.07307477     0.12600
H885        H  0.28850108  0.52728624  0.10213387     0.12200
H886        H  0.33223917  0.47456842  0.17674384     0.11700
H887        H  0.38232978  0.47380088  0.14727904     0.11900
H888        H  0.25497155  0.49398506  0.13922633     0.14700
H889        H  0.28596220  0.49842592  0.20397481     0.13400
H890        H  0.40637374  0.47275109  0.09239173     0.11100
H891        H  0.39402472  0.53799482  0.06273134     0.13100
C892        C  0.69183106  0.47477479  0.14000362     0.19200
C893        C  0.68004525  0.45290121  0.11792644    -0.18900
C894        C  0.65536842  0.46117849  0.09796546    -0.11200
C895        C  0.64172344  0.49164741  0.09957006     0.21500
C896        C  0.65381684  0.51398176  0.12104269    -0.20500
C897        C  0.67850366  0.50559873  0.14130778    -0.11400
C898        C  0.61512907  0.50056354  0.07888190    -0.15500
C899        C  0.59299317  0.47953193  0.06939167    -0.29400
C900        C  0.71922164  0.46452633  0.15944965    -0.03600
C901        C  0.73038543  0.47978407  0.18511026    -0.40200
H902        H  0.69013116  0.42918562  0.11596397     0.12600
H903        H  0.64732774  0.44376953  0.08098762     0.12200
H904        H  0.64390459  0.53781623  0.12237342     0.11700
H905        H  0.68734123  0.52342564  0.15739132     0.11900
H906        H  0.61240630  0.52562970  0.07309879     0.14700
H907        H  0.59354224  0.45503510  0.07728317     0.13400
H908        H  0.73103587  0.44271987  0.15183617     0.11100
H909        H  0.71879132  0.50112565  0.19404198     0.13100
loop_ 
_geom_bond_atom_site_label_1 
_geom_bond_atom_site_label_2 
_geom_bond_distance 
_geom_bond_site_symmetry_2 
_ccdc_geom_bond_type 
O1            C9   1.281       .  A
O1          Co21   1.919       .  S
O2           C10   1.269       .  A
O2          Co22   1.987       .  S
O3           C11   1.239       .  A
O3          Co23   1.935   1_556  S
O4           C12   1.265       .  A
O4          Co24   2.009   1_554  S
O5           C11   1.274       .  A
O5          Co22   2.045       .  S
O6           C12   1.263       .  A
O6          Co21   1.996       .  S
O7           C10   1.274       .  A
O7          Co24   2.002       .  S
O8            C9   1.297       .  A
O8          Co23   2.070       .  S
C9          C791   1.481       .  S
C10         C863   1.484       .  S
C11         C811   1.477       .  S
C12         C883   1.484       .  S
O13          C26   1.281       .  A
O13         Co21   2.036       .  S
O14          C27   1.274       .  A
O14         Co22   1.903       .  S
O15          C28   1.239       .  A
O15         Co23   1.931       .  S
O16          C29   1.267       .  A
O16         Co24   1.999       .  S
O17          C29   1.271       .  A
O17         Co22   2.006       .  S
O18          C28   1.263       .  A
O18         Co21   2.029       .  S
O19          C26   1.273       .  A
O19         Co24   1.991   1_554  S
O20          C27   1.301       .  A
O20         Co23   2.087   1_556  S
Co21         O25   1.945       .  S
Co22         O25   1.966   1_556  S
Co23         O25   2.104       .  S
Co24         O25   2.042   1_556  S
C26         C773   1.493       .  S
C27         C827   1.478       .  S
C28         C899   1.469       .  S
C29         C847   1.492       .  S
C30         C881   1.491       .  S
C30          N31   1.358       .  A
C30          N35   1.368       .  A
N31          C32   1.354       .  A
C32         C757   1.475       .  S
C32          N33   1.357       .  A
N33          C34   1.360       .  A
C34         C739   1.491       .  S
C34          N35   1.369       .  A
C36         C701   1.487       .  S
C36          N37   1.366       .  A
C36          N41   1.359       .  A
N37          C38   1.367       .  A
C38         C901   1.490       .  S
C38          N39   1.360       .  A
N39          C40   1.356       .  A
C40         C719   1.477       .  S
C40          N41   1.353       .  A
C42         C865   1.495       .  S
C42          N43   1.358       .  A
C42          N47   1.371       .  A
N43          C44   1.351       .  A
C44         C685   1.474       .  S
C44          N45   1.354       .  A
N45          C46   1.361       .  A
C46         C667   1.497       .  S
C46          N47   1.372       .  A
C48         C629   1.493       .  S
C48          N49   1.368       .  A
C48          N53   1.356       .  A
N49          C50   1.370       .  A
C50         C829   1.494       .  S
C50          N51   1.362       .  A
N51          C52   1.355       .  A
C52         C647   1.473       .  S
C52          N53   1.349       .  A
N54          C59   1.350   1_655  A
N54          C58   1.350       .  A
N54          H86   1.072       .  S
N55          C62   1.351       .  A
N55          C63   1.351   1_556  A
N56          C61   1.353       .  A
N56          C60   1.354       .  A
N56          H87   1.047       .  S
N57          C64   1.351       .  A
N57          C65   1.351   1_556  A
C58          C66   1.390       .  A
C58          C74   1.418       .  A
C59          C75   1.414       .  A
C59          C67   1.387   1_455  A
C60          C68   1.389       .  A
C60          C77   1.419       .  A
C61          C76   1.411   1_655  A
C61          C69   1.385       .  A
C62          C74   1.414       .  A
C62          C70   1.387       .  A
C63          C77   1.409       .  A
C63          C71   1.385   1_554  A
C64          C72   1.387       .  A
C64          C75   1.414       .  A
C65          C73   1.386   1_554  A
C65          C76   1.409       .  A
C66          C67   1.373       .  A
C66          H78   1.082       .  S
C67          H79   1.083   1_655  S
C68          C69   1.371       .  A
C68          H80   1.081       .  S
C69          H81   1.082       .  S
C70          C71   1.373       .  A
C70          H82   1.082       .  S
C71          H83   1.082   1_556  S
C72          C73   1.373       .  A
C72          H84   1.082       .  S
C73          H85   1.082   1_556  S
C74         C649   1.493       .  S
C75         C683   1.490       .  S
C76         C755   1.481       .  S
C77         C721   1.490       .  S
O88          C96   1.270       .  A
O88        Co108   2.028       .  S
O89          C97   1.267       .  A
O89        Co109   2.020       .  S
O90          C98   1.254       .  A
O90        Co110   1.965       .  S
O91          C99   1.255       .  A
O91        Co111   1.960   1_455  S
O92          C98   1.260       .  A
O92        Co109   2.016       .  S
O93          C99   1.263       .  A
O93        Co108   2.024       .  S
O94          C97   1.263       .  A
O94        Co111   1.989       .  S
O95          C96   1.261       .  A
O95        Co110   1.987   1_455  S
C96         C737   1.490       .  S
C97         C575   1.491       .  S
C98         C703   1.486       .  S
C99         C611   1.489       .  S
O100        C113   1.270       .  A
O100       Co108   1.889       .  S
O101        C114   1.268       .  A
O101       Co109   1.877       .  S
O102        C115   1.271       .  A
O102       Co110   2.021   1_455  S
O103        C116   1.270       .  A
O103       Co111   2.020       .  S
O104        C116   1.261       .  A
O104       Co109   1.968       .  S
O105        C115   1.262       .  A
O105       Co108   1.973       .  S
O106        C113   1.306       .  A
O106       Co111   2.122   1_455  S
O107        C114   1.306       .  A
O107       Co110   2.127       .  S
Co108       O112   1.989   1_455  S
Co109       O112   1.981       .  S
Co110       O112   2.123       .  S
Co111       O112   2.122       .  S
C113        C665   1.491       .  S
C114        C557   1.490       .  S
C115        C595   1.484       .  S
C116        C631   1.481       .  S
C117        C793   1.494       .  S
C117        N118   1.365       .  A
C117        N122   1.371       .  A
N118        C119   1.358       .  A
C119        C539   1.473       .  S
C119        N120   1.349       .  A
N120        C121   1.355       .  A
C121        C521   1.493       .  S
C121        N122   1.366       .  A
C123        C775   1.498       .  S
C123        N124   1.358       .  A
C123        N128   1.370       .  A
N124        C125   1.351       .  A
C125        C503   1.476       .  S
C125        N126   1.355       .  A
N126        C127   1.362       .  A
C127        C485   1.496       .  S
C127        N128   1.371       .  A
C129        C449   1.495       .  S
C129        N130   1.364       .  A
C129        N134   1.368       .  A
N130        C131   1.360       .  A
C131        C467   1.478       .  S
C131        N132   1.355       .  A
N132        C133   1.357       .  A
C133        C845   1.491       .  S
C133        N134   1.366       .  A
C135        C413   1.494       .  S
C135        N136   1.368       .  A
C135        N140   1.357       .  A
N136        C137   1.370       .  A
C137        C809   1.490       .  S
C137        N138   1.360       .  A
N138        C139   1.354       .  A
C139        C431   1.471       .  S
C139        N140   1.351       .  A
N141        C146   1.356       .  A
N141        C145   1.358   1_554  A
N141        H173   1.031       .  S
N142        C149   1.350   1_565  A
N142        C150   1.350       .  A
N143        C148   1.353       .  A
N143        C147   1.354   1_554  A
N143        H174   1.040       .  S
N144        C151   1.352   1_565  A
N144        C152   1.352       .  A
C145        C153   1.387       .  A
C145        C161   1.421       .  A
C146        C162   1.420       .  A
C146        C154   1.387       .  A
C147        C155   1.388       .  A
C147        C164   1.414       .  A
C148        C163   1.413       .  A
C148        C156   1.388       .  A
C149        C161   1.409       .  A
C149        C157   1.386   1_545  A
C150        C164   1.411       .  A
C150        C158   1.386       .  A
C151        C159   1.388       .  A
C151        C162   1.414       .  A
C152        C160   1.385       .  A
C152        C163   1.413       .  A
C153        C154   1.373   1_556  A
C153        H165   1.081       .  S
C154        H166   1.081       .  S
C155        C156   1.371   1_556  A
C155        H167   1.082       .  S
C156        H168   1.082       .  S
C157        C158   1.372       .  A
C157        H169   1.083   1_565  S
C158        H170   1.083       .  S
C159        C160   1.372   1_545  A
C159        H171   1.082       .  S
C160        H172   1.082       .  S
C161        C469   1.491       .  S
C162        C505   1.489       .  S
C163        C541   1.488       .  S
C164        C433   1.489       .  S
C175        C613   1.494       .  S
C175        N176   1.357       .  A
C175        N180   1.367       .  A
N176        C177   1.353       .  A
C177        C397   1.479       .  S
C177        N178   1.355       .  A
N178        C179   1.362       .  A
C179        C379   1.494       .  S
C179        N180   1.370       .  A
C181        C343   1.492       .  S
C181        N182   1.354       .  A
C181        N186   1.367       .  A
N182        C183   1.349       .  A
C183        C359   1.471       .  S
C183        N184   1.357       .  A
N184        C185   1.364       .  A
C185        C559   1.491       .  S
C185        N186   1.371       .  A
C187        C593   1.486       .  S
C187        N188   1.359       .  A
C187        N192   1.367       .  A
N188        C189   1.355       .  A
C189        C323   1.468       .  S
C189        N190   1.350       .  A
N190        C191   1.357       .  A
C191        C305   1.486       .  S
C191        N192   1.366       .  A
C193        C271   1.497       .  S
C193        N194   1.369       .  A
C193        N198   1.359       .  A
N194        C195   1.369       .  A
C195        C577   1.488       .  S
C195        N196   1.360       .  A
N196        C197   1.353       .  A
C197        C287   1.476       .  S
C197        N198   1.354       .  A
N199        C204   1.350       .  A
N199        C203   1.352       .  A
N199        H231   1.044       .  S
N200        C207   1.352   1_565  A
N200        C208   1.350       .  A
N201        C206   1.357       .  A
N201        C205   1.355       .  A
N201        H232   1.042       .  S
N202        C209   1.350   1_565  A
N202        C210   1.350       .  A
C203        C211   1.389       .  A
C203        C219   1.414       .  A
C204        C220   1.406       .  A
C204        C212   1.386       .  A
C205        C213   1.388       .  A
C205        C222   1.419       .  A
C206        C221   1.417       .  A
C206        C214   1.387       .  A
C207        C219   1.408       .  A
C207        C215   1.384       .  A
C208        C222   1.411       .  A
C208        C216   1.388       .  A
C209        C217   1.383   1_645  A
C209        C220   1.405       .  A
C210        C218   1.390   1_655  A
C210        C221   1.414       .  A
C211        C212   1.369       .  A
C211        H223   1.081       .  S
C212        H224   1.082       .  S
C213        C214   1.373       .  A
C213        H225   1.082       .  S
C214        H226   1.082       .  S
C215        C216   1.372   1_545  A
C215        H227   1.082       .  S
C216        H228   1.082       .  S
C217        C218   1.370       .  A
C217        H229   1.082   1_565  S
C218        H230   1.079       .  S
C219        C361   1.489       .  S
C220        C325   1.475   1_655  S
C221        C395   1.487   1_655  S
C222        C289   1.486       .  S
O233        C241   1.266       .  A
O233       Co253   2.017       .  S
O234        C242   1.279       .  A
O234       Co254   2.030       .  S
O235        C243   1.268       .  A
O235       Co255   1.986   1_545  S
O236        C244   1.265       .  A
O236       Co256   1.898       .  S
O237        C243   1.270       .  A
O237       Co254   2.016       .  S
O238        C244   1.295       .  A
O238       Co253   2.116       .  S
O239        C242   1.270       .  A
O239       Co256   1.976   1_545  S
O240        C241   1.262       .  A
O240       Co255   1.979       .  S
C241        C523   1.488       .  S
C242        C341   1.484       .  S
C243        C487   1.489       .  S
C244        C269   1.490       .  S
O245        C258   1.267       .  A
O245       Co253   1.905       .  S
O246        C259   1.269       .  A
O246       Co254   1.979       .  S
O247        C260   1.281       .  A
O247       Co255   2.045       .  S
O248        C261   1.266       .  A
O248       Co256   2.009   1_545  S
O249        C261   1.264       .  A
O249       Co254   1.989       .  S
O250        C260   1.268       .  A
O250       Co253   1.971       .  S
O251        C258   1.299       .  A
O251       Co256   2.117       .  S
O252        C259   1.272       .  A
O252       Co255   2.011   1_545  S
Co253       O257   2.027   1_565  S
Co254       O257   2.062       .  S
Co255       O257   2.040   1_565  S
Co256       O257   2.004   1_565  S
C258        C415   1.486       .  S
C259        C307   1.479       .  S
C260        C377   1.486       .  S
C261        C451   1.488       .  S
C262        C270   1.495       .  S
C262        C263   1.410       .  A
C262        C267   1.403       .  A
C263        C264   1.413       .  A
C263        H272   1.082       .  S
C264        C265   1.413       .  A
C264        H273   1.081       .  S
C265        C268   1.497       .  S
C265        C266   1.402       .  A
C266        C267   1.393       .  A
C266        H274   1.084       .  S
C267        H275   1.084       .  S
C268        H276   1.087       .  S
C268        C269   1.349       .  D
C269        H277   1.084       .  S
C270        H278   1.087       .  S
C270        C271   1.355       .  D
C271        H279   1.085       .  S
C280        C288   1.482       .  S
C280        C281   1.402       .  A
C280        C285   1.406       .  A
C281        C282   1.398       .  A
C281        H290   1.083       .  S
C282        C283   1.409       .  A
C282        H291   1.081       .  S
C283        C286   1.486       .  S
C283        C284   1.403       .  A
C284        C285   1.395       .  A
C284        H292   1.084       .  S
C285        H293   1.082       .  S
C286        H294   1.087       .  S
C286        C287   1.347       .  D
C287        H295   1.083       .  S
C288        H296   1.087       .  S
C288        C289   1.345       .  D
C289        H297   1.086       .  S
C298        C306   1.495       .  S
C298        C299   1.407       .  A
C298        C303   1.407       .  A
C299        C300   1.405       .  A
C299        H308   1.083       .  S
C300        C301   1.407       .  A
C300        H309   1.082       .  S
C301        C304   1.487       .  S
C301        C302   1.404       .  A
C302        C303   1.397       .  A
C302        H310   1.084       .  S
C303        H311   1.081       .  S
C304        H312   1.087       .  S
C304        C305   1.351       .  D
C305        H313   1.085       .  S
C306        H314   1.087       .  S
C306        C307   1.348       .  D
C307        H315   1.084       .  S
C316        C324   1.476       .  S
C316        C317   1.401       .  A
C316        C321   1.407       .  A
C317        C318   1.395       .  A
C317        H326   1.083       .  S
C318        C319   1.406       .  A
C318        H327   1.082       .  S
C319        C322   1.476       .  S
C319        C320   1.400       .  A
C320        C321   1.395       .  A
C320        H328   1.083       .  S
C321        H329   1.082       .  S
C322        H330   1.087       .  S
C322        C323   1.341       .  D
C323        H331   1.086       .  S
C324        H332   1.088       .  S
C324        C325   1.341       .  D
C325        H333   1.084       .  S
C334        C342   1.492       .  S
C334        C335   1.406       .  A
C334        C339   1.406       .  A
C335        C336   1.398       .  A
C335        H344   1.084       .  S
C336        C337   1.406       .  A
C336        H345   1.081       .  S
C337        C340   1.497       .  S
C337        C338   1.409       .  A
C338        C339   1.407       .  A
C338        H346   1.083       .  S
C339        H347   1.082       .  S
C340        H348   1.087       .  S
C340        C341   1.352       .  D
C341        H349   1.084       .  S
C342        H350   1.087       .  S
C342        C343   1.355       .  D
C343        H351   1.085       .  S
C352        C360   1.479       .  S
C352        C353   1.403       .  A
C352        C357   1.404       .  A
C353        C354   1.397       .  A
C353        H362   1.083       .  S
C354        C355   1.411       .  A
C354        H363   1.081       .  S
C355        C358   1.487       .  S
C355        C356   1.402       .  A
C356        C357   1.398       .  A
C356        H364   1.083       .  S
C357        H365   1.083       .  S
C358        H366   1.087       .  S
C358        C359   1.343       .  D
C359        H367   1.085       .  S
C360        H368   1.087       .  S
C360        C361   1.346       .  D
C361        H369   1.086       .  S
C370        C378   1.498       .  S
C370        C371   1.407       .  A
C370        C375   1.408       .  A
C371        C372   1.401       .  A
C371        H380   1.083       .  S
C372        C373   1.407       .  A
C372        H381   1.081       .  S
C373        C376   1.501       .  S
C373        C374   1.409       .  A
C374        C375   1.407       .  A
C374        H382   1.083       .  S
C375        H383   1.081       .  S
C376        H384   1.087       .  S
C376        C377   1.353       .  D
C377        H385   1.084       .  S
C378        H386   1.086       .  S
C378        C379   1.356       .  D
C379        H387   1.084       .  S
C388        C396   1.485       .  S
C388        C389   1.404       .  A
C388        C393   1.408       .  A
C389        C390   1.396       .  A
C389        H398   1.083       .  S
C390        C391   1.404       .  A
C390        H399   1.083       .  S
C391        C394   1.481       .  S
C391        C392   1.403       .  A
C392        C393   1.400       .  A
C392        H400   1.083       .  S
C393        H401   1.081       .  S
C394        H402   1.087       .  S
C394        C395   1.344       .  D
C395        H403   1.086   1_455  S
C396        H404   1.087       .  S
C396        C397   1.348       .  D
C397        H405   1.085       .  S
C406        C414   1.504       .  S
C406        C407   1.411       .  A
C406        C411   1.408       .  A
C407        C408   1.408       .  A
C407        H416   1.083       .  S
C408        C409   1.406       .  A
C408        H417   1.082       .  S
C409        C412   1.494       .  S
C409        C410   1.405       .  A
C410        C411   1.398       .  A
C410        H418   1.084       .  S
C411        H419   1.079       .  S
C412        H420   1.087       .  S
C412        C413   1.356       .  D
C413        H421   1.085       .  S
C414        H422   1.087       .  S
C414        C415   1.355       .  D
C415        H423   1.082       .  S
C424        C432   1.479       .  S
C424        C425   1.401       .  A
C424        C429   1.407       .  A
C425        C426   1.392       .  A
C425        H434   1.084       .  S
C426        C427   1.407       .  A
C426        H435   1.081       .  S
C427        C430   1.484       .  S
C427        C428   1.404       .  A
C428        C429   1.400       .  A
C428        H436   1.083       .  S
C429        H437   1.081       .  S
C430        H438   1.087       .  S
C430        C431   1.344       .  D
C431        H439   1.085       .  S
C432        H440   1.088       .  S
C432        C433   1.346       .  D
C433        H441   1.084       .  S
C442        C450   1.501       .  S
C442        C443   1.408       .  A
C442        C447   1.407       .  A
C443        C444   1.407       .  A
C443        H452   1.083       .  S
C444        C445   1.410       .  A
C444        H453   1.080       .  S
C445        C448   1.503       .  S
C445        C446   1.408       .  A
C446        C447   1.402       .  A
C446        H454   1.083       .  S
C447        H455   1.081       .  S
C448        H456   1.087       .  S
C448        C449   1.355       .  D
C449        H457   1.083       .  S
C450        H458   1.087       .  S
C450        C451   1.353       .  D
C451        H459   1.085       .  S
C460        C468   1.489       .  S
C460        C461   1.401       .  A
C460        C465   1.409       .  A
C461        C462   1.397       .  A
C461        H470   1.084       .  S
C462        C463   1.411       .  A
C462        H471   1.079       .  S
C463        C466   1.496       .  S
C463        C464   1.405       .  A
C464        C465   1.401       .  A
C464        H472   1.083       .  S
C465        H473   1.081       .  S
C466        H474   1.087       .  S
C466        C467   1.347       .  D
C467        H475   1.082       .  S
C468        H476   1.087       .  S
C468        C469   1.344       .  D
C469        H477   1.084       .  S
C478        C486   1.500       .  S
C478        C479   1.402       .  A
C478        C483   1.415       .  A
C479        C480   1.395       .  A
C479        H488   1.084       .  S
C480        C481   1.404       .  A
C480        H489   1.084       .  S
C481        C484   1.495       .  S
C481        C482   1.409       .  A
C482        C483   1.412       .  A
C482        H490   1.082       .  S
C483        H491   1.080       .  S
C484        H492   1.087       .  S
C484        C485   1.355       .  D
C485        H493   1.085       .  S
C486        H494   1.087       .  S
C486        C487   1.348       .  D
C487        H495   1.083       .  S
C496        C504   1.480       .  S
C496        C497   1.402       .  A
C496        C501   1.406       .  A
C497        C498   1.397       .  A
C497        H506   1.084       .  S
C498        C499   1.407       .  A
C498        H507   1.082       .  S
C499        C502   1.486       .  S
C499        C500   1.404       .  A
C500        C501   1.401       .  A
C500        H508   1.083       .  S
C501        H509   1.082       .  S
C502        H510   1.087       .  S
C502        C503   1.345       .  D
C503        H511   1.086       .  S
C504        H512   1.087       .  S
C504        C505   1.345       .  D
C505        H513   1.086       .  S
C514        C522   1.495       .  S
C514        C515   1.403       .  A
C514        C519   1.413       .  A
C515        C516   1.393       .  A
C515        H524   1.084       .  S
C516        C517   1.403       .  A
C516        H525   1.084       .  S
C517        C520   1.490       .  S
C517        C518   1.408       .  A
C518        C519   1.411       .  A
C518        H526   1.082       .  S
C519        H527   1.081       .  S
C520        H528   1.087       .  S
C520        C521   1.354       .  D
C521        H529   1.085       .  S
C522        H530   1.087       .  S
C522        C523   1.350       .  D
C523        H531   1.084       .  S
C532        C540   1.484       .  S
C532        C533   1.402       .  A
C532        C537   1.409       .  A
C533        C534   1.394       .  A
C533        H542   1.084       .  S
C534        C535   1.407       .  A
C534        H543   1.082       .  S
C535        C538   1.486       .  S
C535        C536   1.402       .  A
C536        C537   1.401       .  A
C536        H544   1.083       .  S
C537        H545   1.081       .  S
C538        H546   1.087       .  S
C538        C539   1.342       .  D
C539        H547   1.086       .  S
C540        H548   1.088       .  S
C540        C541   1.346       .  D
C541        H549   1.084       .  S
C550        C558   1.496       .  S
C550        C551   1.408       .  A
C550        C555   1.406       .  A
C551        C552   1.405       .  A
C551        H560   1.083       .  S
C552        C553   1.406       .  A
C552        H561   1.082       .  S
C553        C556   1.495       .  S
C553        C554   1.407       .  A
C554        C555   1.404       .  A
C554        H562   1.083       .  S
C555        H563   1.082       .  S
C556        H564   1.087       .  S
C556        C557   1.353       .  D
C557        H565   1.086       .  S
C558        H566   1.087       .  S
C558        C559   1.355       .  D
C559        H567   1.085       .  S
C568        C576   1.487       .  S
C568        C569   1.406       .  A
C568        C573   1.401       .  A
C569        C570   1.410       .  A
C569        H578   1.083       .  S
C570        C571   1.413       .  A
C570        H579   1.080       .  S
C571        C574   1.500       .  S
C571        C572   1.405       .  A
C572        C573   1.398       .  A
C572        H580   1.083       .  S
C573        H581   1.084       .  S
C574        H582   1.087       .  S
C574        C575   1.352       .  D
C575        H583   1.083       .  S
C576        H584   1.088       .  S
C576        C577   1.350       .  D
C577        H585   1.086       .  S
C586        C594   1.493       .  S
C586        C587   1.407       .  A
C586        C591   1.407       .  A
C587        C588   1.401       .  A
C587        H596   1.083       .  S
C588        C589   1.405       .  A
C588        H597   1.082       .  S
C589        C592   1.490       .  S
C589        C590   1.406       .  A
C590        C591   1.402       .  A
C590        H598   1.083       .  S
C591        H599   1.081       .  S
C592        H600   1.087       .  S
C592        C593   1.353       .  D
C593        H601   1.085       .  S
C594        H602   1.087       .  S
C594        C595   1.352       .  D
C595        H603   1.085       .  S
C604        C612   1.494       .  S
C604        C605   1.409       .  A
C604        C609   1.404       .  A
C605        C606   1.412       .  A
C605        H614   1.082       .  S
C606        C607   1.413       .  A
C606        H615   1.080       .  S
C607        C610   1.498       .  S
C607        C608   1.403       .  A
C608        C609   1.394       .  A
C608        H616   1.084       .  S
C609        H617   1.084       .  S
C610        H618   1.087       .  S
C610        C611   1.351       .  D
C611        H619   1.084       .  S
C612        H620   1.087       .  S
C612        C613   1.354       .  D
C613        H621   1.085       .  S
C622        C630   1.494       .  S
C622        C623   1.410       .  A
C622        C627   1.404       .  A
C623        C624   1.406       .  A
C623        H632   1.083       .  S
C624        C625   1.406       .  A
C624        H633   1.081       .  S
C625        C628   1.493       .  S
C625        C626   1.408       .  A
C626        C627   1.397       .  A
C626        H634   1.083       .  S
C627        H635   1.081       .  S
C628        H636   1.086       .  S
C628        C629   1.357       .  D
C629        H637   1.084       .  S
C630        H638   1.087       .  S
C630        C631   1.354       .  D
C631        H639   1.084       .  S
C640        C648   1.485       .  S
C640        C641   1.404       .  A
C640        C645   1.407       .  A
C641        C642   1.396       .  A
C641        H650   1.083       .  S
C642        C643   1.402       .  A
C642        H651   1.083       .  S
C643        C646   1.488       .  S
C643        C644   1.410       .  A
C644        C645   1.398       .  A
C644        H652   1.081       .  S
C645        H653   1.080       .  S
C646        H654   1.087       .  S
C646        C647   1.345       .  D
C647        H655   1.083       .  S
C648        H656   1.087       .  S
C648        C649   1.347       .  D
C649        H657   1.083       .  S
C658        C666   1.499       .  S
C658        C659   1.408       .  A
C658        C663   1.408       .  A
C659        C660   1.401       .  A
C659        H668   1.083       .  S
C660        C661   1.406       .  A
C660        H669   1.081       .  S
C661        C664   1.501       .  S
C661        C662   1.410       .  A
C662        C663   1.409       .  A
C662        H670   1.083       .  S
C663        H671   1.081       .  S
C664        H672   1.087       .  S
C664        C665   1.355       .  D
C665        H673   1.085       .  S
C666        H674   1.087       .  S
C666        C667   1.358       .  D
C667        H675   1.085       .  S
C676        C684   1.484       .  S
C676        C677   1.403       .  A
C676        C681   1.405       .  A
C677        C678   1.401       .  A
C677        H686   1.083       .  S
C678        C679   1.410       .  A
C678        H687   1.080       .  S
C679        C682   1.489       .  S
C679        C680   1.404       .  A
C680        C681   1.396       .  A
C680        H688   1.083       .  S
C681        H689   1.082       .  S
C682        H690   1.088       .  S
C682        C683   1.347       .  D
C683        H691   1.083       .  S
C684        H692   1.087       .  S
C684        C685   1.345       .  D
C685        H693   1.086       .  S
C694        C702   1.495       .  S
C694        C695   1.403       .  A
C694        C699   1.412       .  A
C695        C696   1.397       .  A
C695        H704   1.084       .  S
C696        C697   1.403       .  A
C696        H705   1.084       .  S
C697        C700   1.490       .  S
C697        C698   1.408       .  A
C698        C699   1.408       .  A
C698        H706   1.082       .  S
C699        H707   1.081       .  S
C700        H708   1.088       .  S
C700        C701   1.350       .  D
C701        H709   1.085       .  S
C702        H710   1.087       .  S
C702        C703   1.349       .  D
C703        H711   1.085       .  S
C712        C720   1.488       .  S
C712        C713   1.404       .  A
C712        C717   1.407       .  A
C713        C714   1.399       .  A
C713        H722   1.083       .  S
C714        C715   1.409       .  A
C714        H723   1.080       .  S
C715        C718   1.489       .  S
C715        C716   1.403       .  A
C716        C717   1.397       .  A
C716        H724   1.083       .  S
C717        H725   1.081       .  S
C718        H726   1.087       .  S
C718        C719   1.347       .  D
C719        H727   1.083       .  S
C720        H728   1.087       .  S
C720        C721   1.346       .  D
C721        H729   1.084       .  S
C730        C738   1.493       .  S
C730        C731   1.406       .  A
C730        C735   1.406       .  A
C731        C732   1.406       .  A
C731        H740   1.083       .  S
C732        C733   1.407       .  A
C732        H741   1.083       .  S
C733        C736   1.495       .  S
C733        C734   1.406       .  A
C734        C735   1.404       .  A
C734        H742   1.083       .  S
C735        H743   1.083       .  S
C736        H744   1.087       .  S
C736        C737   1.353       .  D
C737        H745   1.086       .  S
C738        H746   1.087       .  S
C738        C739   1.353       .  D
C739        H747   1.086       .  S
C748        C756   1.481       .  S
C748        C749   1.401       .  A
C748        C753   1.406       .  A
C749        C750   1.397       .  A
C749        H758   1.083       .  S
C750        C751   1.408       .  A
C750        H759   1.082       .  S
C751        C754   1.483       .  S
C751        C752   1.402       .  A
C752        C753   1.399       .  A
C752        H760   1.083       .  S
C753        H761   1.083       .  S
C754        H762   1.087       .  S
C754        C755   1.342       .  D
C755        H763   1.085       .  S
C756        H764   1.087       .  S
C756        C757   1.343       .  D
C757        H765   1.086       .  S
C766        C774   1.499       .  S
C766        C767   1.406       .  A
C766        C771   1.410       .  A
C767        C768   1.396       .  A
C767        H776   1.084       .  S
C768        C769   1.406       .  A
C768        H777   1.082       .  S
C769        C772   1.505       .  S
C769        C770   1.411       .  A
C770        C771   1.413       .  A
C770        H778   1.083       .  S
C771        H779   1.081       .  S
C772        H780   1.086       .  S
C772        C773   1.354       .  D
C773        H781   1.086       .  S
C774        H782   1.086       .  S
C774        C775   1.357       .  D
C775        H783   1.084       .  S
C784        C792   1.500       .  S
C784        C785   1.406       .  A
C784        C789   1.410       .  A
C785        C786   1.399       .  A
C785        H794   1.084       .  S
C786        C787   1.408       .  A
C786        H795   1.081       .  S
C787        C790   1.498       .  S
C787        C788   1.406       .  A
C788        C789   1.407       .  A
C788        H796   1.083       .  S
C789        H797   1.080       .  S
C790        H798   1.086       .  S
C790        C791   1.346       .  D
C791        H799   1.085       .  S
C792        H800   1.087       .  S
C792        C793   1.355       .  D
C793        H801   1.083       .  S
C802        C810   1.491       .  S
C802        C803   1.404       .  A
C802        C807   1.408       .  A
C803        C804   1.400       .  A
C803        H812   1.083       .  S
C804        C805   1.405       .  A
C804        H813   1.081       .  S
C805        C808   1.493       .  S
C805        C806   1.408       .  A
C806        C807   1.402       .  A
C806        H814   1.084       .  S
C807        H815   1.082       .  S
C808        H816   1.087       .  S
C808        C809   1.355       .  D
C809        H817   1.084       .  S
C810        H818   1.087       .  S
C810        C811   1.341       .  D
C811        H819   1.086       .  S
C820        C828   1.496       .  S
C820        C821   1.406       .  A
C820        C825   1.409       .  A
C821        C822   1.397       .  A
C821        H830   1.084       .  S
C822        C823   1.405       .  A
C822        H831   1.082       .  S
C823        C826   1.493       .  S
C823        C824   1.407       .  A
C824        C825   1.407       .  A
C824        H832   1.083       .  S
C825        H833   1.081       .  S
C826        H834   1.087       .  S
C826        C827   1.348       .  D
C827        H835   1.085       .  S
C828        H836   1.086       .  S
C828        C829   1.355       .  D
C829        H837   1.084       .  S
C838        C846   1.504       .  S
C838        C839   1.405       .  A
C838        C843   1.414       .  A
C839        C840   1.402       .  A
C839        H848   1.083       .  S
C840        C841   1.405       .  A
C840        H849   1.083       .  S
C841        C844   1.494       .  S
C841        C842   1.407       .  A
C842        C843   1.409       .  A
C842        H850   1.083       .  S
C843        H851   1.081       .  S
C844        H852   1.087       .  S
C844        C845   1.353       .  D
C845        H853   1.086       .  S
C846        H854   1.087       .  S
C846        C847   1.350       .  D
C847        H855   1.085       .  S
C856        C864   1.495       .  S
C856        C857   1.409       .  A
C856        C861   1.406       .  A
C857        C858   1.410       .  A
C857        H866   1.082       .  S
C858        C859   1.413       .  A
C858        H867   1.082       .  S
C859        C862   1.494       .  S
C859        C860   1.400       .  A
C860        C861   1.397       .  A
C860        H868   1.084       .  S
C861        H869   1.083       .  S
C862        H870   1.087       .  S
C862        C863   1.345       .  D
C863        H871   1.085       .  S
C864        H872   1.088       .  S
C864        C865   1.355       .  D
C865        H873   1.085       .  S
C874        C882   1.495       .  S
C874        C875   1.405       .  A
C874        C879   1.408       .  A
C875        C876   1.404       .  A
C875        H884   1.082       .  S
C876        C877   1.407       .  A
C876        H885   1.083       .  S
C877        C880   1.494       .  S
C877        C878   1.406       .  A
C878        C879   1.406       .  A
C878        H886   1.083       .  S
C879        H887   1.083       .  S
C880        H888   1.087       .  S
C880        C881   1.353       .  D
C881        H889   1.086       .  S
C882        H890   1.088       .  S
C882        C883   1.353       .  D
C883        H891   1.085       .  S
C892        C900   1.492       .  S
C892        C893   1.406       .  A
C892        C897   1.409       .  A
C893        C894   1.395       .  A
C893        H902   1.083       .  S
C894        C895   1.401       .  A
C894        H903   1.082       .  S
C895        C898   1.482       .  S
C895        C896   1.406       .  A
C896        C897   1.404       .  A
C896        H904   1.084       .  S
C897        H905   1.081       .  S
C898        H906   1.088       .  S
C898        C899   1.351       .  D
C899        H907   1.085       .  S
C900        H908   1.087       .  S
C900        C901   1.353       .  D
C901        H909   1.084       .  S
