geometry optimzed in LAMMPS
_audit_creation_date              2020-11-30 
_audit_creation_method            'lammps2cif' 
_symmetry_space_group_name_H-M    'P1' 
_symmetry_Int_Tables_number       1 
_symmetry_cell_setting            triclinic 
loop_ 
_symmetry_equiv_pos_as_xyz 
  x,y,z 
_cell_length_a                    38.89105052 
_cell_length_b                    40.72048713089902 
_cell_length_c                    28.877803064671923 
_cell_angle_alpha                 82.28728477229785 
_cell_angle_beta                  78.92221292487015 
_cell_angle_gamma                 90.47130832898014 
loop_ 
_atom_site_label 
_atom_site_type_symbol 
_atom_site_fract_x 
_atom_site_fract_y 
_atom_site_fract_z 
_atom_site_charge 
N1          N  0.33946646  0.36444575  0.98779205    -0.03200
C2          C  0.33958077  0.34326915  0.45463070    -0.00600
C3          C  0.36121670  0.35583628  0.41209523    -0.23500
C4          C  0.37742223  0.38380753  0.42027954    -0.23700
C5          C  0.36308808  0.38961160  0.96778577    -0.00700
H6          H  0.36341151  0.34669453  0.37817949     0.13000
H7          H  0.39555363  0.40046999  0.39433641     0.13100
N8          N  0.04890263  0.40697434  0.01834585    -0.03200
C9          C  0.03377934  0.43661270  0.02474334    -0.00600
C10         C  0.04776152  0.45091574  0.05833888    -0.23500
C11         C  0.07192951  0.42997519  0.07286071    -0.23700
C12         C  0.07172816  0.40313994  0.04855254    -0.00700
H13         H  0.48891302  0.44225190  0.11470885     0.13000
H14         H  0.08486426  0.43203995  0.10241519     0.13100
N15         N  0.29182296  0.05782220  0.02544426    -0.03200
C16         C  0.30974903  0.02949698  0.02248972    -0.00600
C17         C  0.29795388  0.00705943  0.06317757    -0.23500
C18         C  0.27371073  0.02268273  0.09292980    -0.23700
C19         C  0.27150095  0.05422581  0.06963242    -0.00700
H20         H  0.30966595  0.98383264  0.07330128     0.13000
H21         H  0.26264008  0.01363417  0.12981078     0.13100
N22         N  0.43239846  0.43663989  0.49613206    -0.36400
N23         N  0.36986340  0.47541847  0.49060530    -0.56900
N24         N  0.40781273  0.03967798  0.00469929    -0.36400
N25         N  0.46603382  0.49429847  0.01664964    -0.56900
C26         C  0.40615675  0.41341932  0.50635102     0.27200
C27         C  0.45893670  0.42388417  0.51599381     0.27200
C28         C  0.37314738  0.04605779  0.01237627     0.27200
C29         C  0.42295061  0.05760741  0.03231591     0.27200
C30         C  0.36235055  0.44743106  0.47370116     0.35800
C31         C  0.35080900  0.50114925  0.97797560     0.35800
C32         C  0.49351816  0.47412341  0.01042824     0.35800
C33         C  0.48068986  0.03266134  0.01747028     0.35800
C34         C  0.41623028  0.38514638  0.53193253    -0.21600
C35         C  0.44940680  0.39206460  0.53907940    -0.21600
C36         C  0.36706954  0.07076296  0.04141710    -0.21600
C37         C  0.39830039  0.07777541  0.05435010    -0.21600
C38         C  0.33741717  0.45339498  0.44537653    -0.22700
C39         C  0.32873263  0.48598314  0.44632491    -0.22700
C40         C  0.02805136  0.50748787  0.98960727    -0.22700
C41         C  0.01117432  0.02627178  0.02189337    -0.22700
C42         C  0.37558901  0.41620310  0.48745665    -0.18000
C43         C  0.49078252  0.44107257  0.51464503    -0.18000
C44         C  0.45802024  0.05528459  0.03960833    -0.18000
C45         C  0.34680604  0.02783484  0.99740549    -0.18000
H46         H  0.40110894  0.36220121  0.54457097     0.14900
H47         H  0.46431838  0.37584537  0.55988288     0.14900
H48         H  0.34267204  0.08221422  0.05327950     0.14900
H49         H  0.40223871  0.09535106  0.07799651     0.14900
H50         H  0.32573859  0.43587664  0.42738527     0.13100
H51         H  0.30874340  0.49845044  0.43000786     0.13100
H52         H  0.05521793  0.50218803  0.97708782     0.13100
H53         H  0.02821619  0.04630024  0.02517595     0.13100
H54         H  0.43325333  0.45882512  0.47310746     0.26400
H55         H  0.42015480  0.02330435  0.98255137     0.26400
N56         N  0.49143970  0.08863126  0.08817554    -0.03200
C57         C  0.48945302  0.08924178  0.13574103    -0.00600
C58         C  0.46255992  0.06797910  0.16151310    -0.23500
C59         C  0.44795726  0.05358239  0.12901068    -0.23700
C60         C  0.46595019  0.06664042  0.08406329    -0.00700
H61         H  0.45453456  0.06325655  0.19987693     0.13000
H62         H  0.42654704  0.03528115  0.13726465     0.13100
C63         C  0.23249064  0.14711668  0.39283803     0.42700
N64         N  0.19854677  0.16439270  0.34413119     0.01600
C65         C  0.22481597  0.31455942  0.19201748    -0.06300
H66         H  0.19975626  0.31857236  0.37918502     0.07100
C67         C  0.07904207  0.27918475  0.38683969    -0.06600
Co68       Co  0.22941871  0.22507895  0.27845843     0.74200
N69         N  0.20893476  0.28258332  0.33062058    -0.25800
Co70       Co  0.17217940  0.29002620  0.28649752     0.74100
C71         C  0.09304766  0.30971742  0.39923552     0.42800
N72         N  0.09797184  0.19535565  0.36530535     0.01200
N73         N  0.13109706  0.29097897  0.34495696     0.01300
N74         N  0.26106094  0.27173893  0.18740755    -0.46700
H75         H  0.27362083  0.18874612  0.35910748     0.07100
N76         N  0.23044383  0.25775585  0.32693796     0.01600
N77         N  0.13519986  0.29313647  0.24277667     0.01300
C78         C  0.10845297  0.30563421  0.18494147     0.42900
N79         N  0.12041399  0.17114126  0.36332990    -0.25300
C80         C  0.24398615  0.18672590  0.18996339    -0.06200
N81         N  0.20202958  0.14041780  0.37890396    -0.46400
N82         N  0.13606296  0.31416843  0.20344548    -0.46600
C83         C  0.22500013  0.16082822  0.17347812     0.42700
N84         N  0.23438719  0.26521872  0.22394750     0.01600
N85         N  0.12026737  0.17336571  0.26197778    -0.25300
N86         N  0.22533613  0.18582957  0.33352924    -0.25800
N87         N  0.09837325  0.19788378  0.26334890     0.01200
H88         H  0.12312759  0.12915065  0.22804201     0.07100
H89         H  0.06878339  0.26167262  0.21203486     0.07200
N90         N  0.21287593  0.28996050  0.22756982    -0.25800
N91         N  0.10434125  0.26949657  0.35319694    -0.25400
N92         N  0.19714745  0.17019197  0.24165097     0.01600
C93         C  0.23927817  0.27709410  0.38922212     0.43000
C94         C  0.11162948  0.14920931  0.40279613    -0.06700
N95         N  0.10869509  0.27126605  0.25104845    -0.25400
H96         H  0.05261113  0.26866023  0.39639561     0.07100
N97         N  0.24888304  0.25376921  0.36093495    -0.46700
H98         H  0.12385075  0.12576369  0.40968556     0.07100
C99         C  0.08087899  0.16698094  0.21668172     0.42800
C100        C  0.24816858  0.17691505  0.36194477    -0.06200
Co101      Co  0.15905738  0.16899261  0.30315551     0.73800
N102        N  0.07349983  0.19097468  0.40460280    -0.46400
C103        C  0.25721340  0.30262093  0.16538870     0.43100
N104        N  0.19670825  0.15149939  0.20780546    -0.46400
Co105      Co  0.10156821  0.23356606  0.30844605     0.73900
C106        C  0.09051590  0.27697314  0.21614511    -0.06700
C107        C  0.21330491  0.29702147  0.36825255    -0.06300
N108        N  0.22424926  0.19139495  0.23188156    -0.25800
N109        N  0.12524917  0.31545697  0.37120231    -0.46600
H110        H  0.21351679  0.33868174  0.18777781     0.07100
C111        C  0.11119688  0.15253777  0.23377960    -0.06700
Cl112      Cl  0.16551202  0.22942419  0.29419058    -0.49700
C113        C  0.08041958  0.16227497  0.42991252     0.42900
H114        H  0.26864207  0.19954822  0.17335677     0.07100
N115        N  0.07408014  0.19480293  0.23733384    -0.46400
C116        C  0.00916054  0.11115108  0.15637248    -0.05900
C117        C  0.01733756  0.14476257  0.13826297    -0.17000
C118        C  0.04049974  0.16373985  0.15703295     0.11300
C119        C  0.05557427  0.14909061  0.19541265    -0.05800
C120        C  0.04697190  0.11578382  0.21378738    -0.17000
C121        C  0.02435197  0.09676065  0.19489170     0.11400
S122        S  0.05041432  0.20609293  0.12956937    -0.32000
S123        S  0.01726154  0.05383817  0.22109963    -0.32000
H124        H  0.52514505  0.03983733  0.17013434     0.29400
H125        H  0.08457590  0.20803986  0.13857441     0.29400
H126        H  0.00577268  0.15629205  0.10912759     0.19900
H127        H  0.05823295  0.10422827  0.24321846     0.20000
C128        C  0.05657180  0.14360951  0.47118099    -0.05900
C129        C  0.07169244  0.12251947  0.50366662    -0.17000
C130        C  0.04784401  0.10483343  0.04548207     0.11300
C131        C  0.01102079  0.10491777  0.04947564    -0.07000
C132        C  0.99669133  0.12424155  0.01444446    -0.17000
C133        C  0.01961153  0.14461169  0.47780036     0.11400
S134        S  0.06961041  0.07833453  0.08517839    -0.32000
S135        S  0.99702853  0.16930797  0.43733403    -0.32000
H136        H  0.01716877  0.15872932  0.39643225     0.29400
H137        H  0.04261148  0.05388937  0.09909985     0.29400
H138        H  0.09997654  0.12144614  0.49890137     0.19900
H139        H  0.46966598  0.13051582  0.02231572     0.20000
C140        C  0.26061324  0.08265005  0.09507991    -0.05900
C141        C  0.23442903  0.10297367  0.08121266    -0.17000
C142        C  0.22420726  0.13057707  0.10386165     0.11300
C143        C  0.24029711  0.13780108  0.14125140    -0.05800
C144        C  0.26713780  0.11820715  0.15418872    -0.17000
C145        C  0.27743929  0.09057143  0.13177535     0.11400
S146        S  0.19012873  0.15536686  0.08426974    -0.32000
S147        S  0.31153650  0.06548992  0.15143598    -0.32000
H148        H  0.31928099  0.08512306  0.18487944     0.29400
H149        H  0.20063166  0.18499939  0.09843753     0.29400
H150        H  0.22175689  0.09719330  0.05284383     0.19900
H151        H  0.27872757  0.12364979  0.18366254     0.20000
C152        C  0.24947040  0.12457127  0.42642801    -0.05900
C153        C  0.24448198  0.09017225  0.42889013    -0.17000
C154        C  0.26088575  0.06768638  0.95723867     0.11300
C155        C  0.28273634  0.07940405  0.98594700    -0.05800
C156        C  0.28651512  0.11401188  0.48611798    -0.17000
C157        C  0.27057244  0.13656686  0.45596209     0.11400
S158        S  0.24720863  0.02477491  0.96277312    -0.32000
S159        S  0.27444425  0.18033999  0.45967588    -0.32000
H160        H  0.30132135  0.17831394  0.48622320     0.29400
H161        H  0.23746161  0.02073436  0.01265515     0.29400
H162        H  0.22808055  0.08056712  0.40705119     0.19900
H163        H  0.30148058  0.12311864  0.50998312     0.20000
C164        C  0.08167392  0.37092103  0.07011043    -0.05900
C165        C  0.05500366  0.35245227  0.10289591    -0.17000
C166        C  0.06263618  0.32967599  0.13980485     0.11300
C167        C  0.09812730  0.32479730  0.14311181    -0.05800
C168        C  0.12484427  0.34121300  0.10748968    -0.17000
C169        C  0.11690143  0.36417936  0.07094620     0.11400
S170        S  0.02650043  0.31170017  0.18563639    -0.32000
S171        S  0.15248355  0.38619515  0.02865629    -0.32000
H172        H  0.13295259  0.39465130  0.99280829     0.29400
H173        H  0.99923341  0.32199270  0.16190253     0.29400
H174        H  0.02804070  0.35889306  0.10298345     0.19900
H175        H  0.15210733  0.33722099  0.10930176     0.20000
C176        C  0.04680639  0.38428687  0.48413539    -0.05900
C177        C  0.03512801  0.35087323  0.49679263    -0.17000
C178        C  0.04845085  0.32608773  0.46919330     0.11300
C179        C  0.07400779  0.33479992  0.42710629    -0.05800
C180        C  0.08354497  0.36854331  0.41258182    -0.17000
C181        C  0.07003463  0.39309447  0.44012838     0.11400
S182        S  0.03565225  0.28325331  0.49156840    -0.32000
S183        S  0.09216274  0.43606722  0.91812985    -0.32000
H184        H  0.06012814  0.45142966  0.93032971     0.29400
H185        H  0.01312375  0.28877611  0.53391374     0.29400
H186        H  0.01804729  0.34363657  0.53085736     0.19900
H187        H  0.10269894  0.37586732  0.38016009     0.20000
C188        C  0.28244423  0.32100685  0.12379258    -0.05900
C189        C  0.27374270  0.35250065  0.10323096    -0.17000
C190        C  0.29382196  0.36896364  0.06054205     0.11300
C191        C  0.32354095  0.35388216  0.03716626    -0.05800
C192        C  0.33365349  0.32368693  0.05925835    -0.17000
C193        C  0.31419141  0.30755327  0.10236773     0.11400
S194        S  0.27858335  0.40788780  0.03615861    -0.32000
S195        S  0.33151837  0.26977891  0.12719266    -0.32000
H196        H  0.32836599  0.27963058  0.17268144     0.29400
H197        H  0.28752808  0.40241828  0.98846867     0.29400
H198        H  0.25020946  0.36396685  0.11912823     0.19900
H199        H  0.35653689  0.31202730  0.04164251     0.20000
C200        C  0.26085008  0.28608575  0.42259189    -0.05900
C201        C  0.29460954  0.27325083  0.41902390    -0.17000
C202        C  0.32029778  0.28854278  0.43708558     0.11300
C203        C  0.31226302  0.31760889  0.45759519    -0.05800
C204        C  0.27720153  0.32642493  0.46910478    -0.17000
C205        C  0.25109519  0.31015888  0.45301273     0.11400
S206        S  0.36351689  0.27184403  0.42930991    -0.32000
S207        S  0.20650223  0.32167895  0.47180102    -0.32000
H208        H  0.19159660  0.29079652  0.46793150     0.29400
H209        H  0.37460523  0.28755640  0.46467607     0.29400
H210        H  0.30200584  0.25292932  0.39891325     0.19900
H211        H  0.26824780  0.34691522  0.98663855     0.20000
N212        N  0.34157403  0.36237292  0.48892725    -0.03200
C213        C  0.33792627  0.34626869  0.95222523    -0.00600
C214        C  0.35995776  0.35977740  0.91046398    -0.23500
C215        C  0.37606686  0.38717103  0.92045120    -0.23700
C216        C  0.36491590  0.38736999  0.46738277    -0.00700
H217        H  0.36278512  0.35144281  0.87592751     0.13000
H218        H  0.39463212  0.40410780  0.89560869     0.13100
N219        N  0.04567069  0.40495724  0.52155673    -0.03200
C220        C  0.03086326  0.43475116  0.52746642    -0.00600
C221        C  0.04317437  0.44813592  0.56319263    -0.23500
C222        C  0.06612434  0.42649519  0.57941699    -0.23700
C223        C  0.06684872  0.40026779  0.55383163    -0.00700
H224        H  0.49871012  0.45151333  0.60546411     0.13000
H225        H  0.07789795  0.42790859  0.61018025     0.13100
N226        N  0.29197759  0.05775389  0.52678454    -0.03200
C227        C  0.31252289  0.03106387  0.52294496    -0.00600
C228        C  0.30434143  0.00889735  0.56474354    -0.23500
C229        C  0.27969074  0.02312803  0.59578504    -0.23700
C230        C  0.27328817  0.05339283  0.57194413    -0.00700
H231        H  0.31859297  0.98708259  0.57421593     0.13000
H232        H  0.27088257  0.01433331  0.63331563     0.13100
N233        N  0.43120549  0.43655468  0.99939888    -0.36400
N234        N  0.36995255  0.47650767  0.99497779    -0.56900
N235        N  0.40952058  0.04260373  0.50362955    -0.36400
N236        N  0.46452391  0.49538093  0.51334817    -0.56900
C237        C  0.40451938  0.41374327  0.00863775     0.27200
C238        C  0.45724849  0.42293066  0.01950544     0.27200
C239        C  0.37518813  0.05011030  0.50868865     0.27200
C240        C  0.42404614  0.06053827  0.53182639     0.27200
C241        C  0.36152594  0.44921277  0.97714310     0.35800
C242        C  0.34958746  0.49906964  0.47354182     0.35800
C243        C  0.49289903  0.47626545  0.50618161     0.35800
C244        C  0.48127136  0.03430228  0.52077171     0.35800
C245        C  0.41381854  0.38492895  0.03369023    -0.21600
C246        C  0.44686631  0.39102861  0.04177177    -0.21600
C247        C  0.36907448  0.07580617  0.53581507    -0.21600
C248        C  0.39962747  0.08198371  0.55116107    -0.21600
C249        C  0.33701658  0.45654918  0.94853304    -0.22700
C250        C  0.32976758  0.48940965  0.94988796    -0.22700
C251        C  0.02970441  0.50558075  0.49205715    -0.22700
C252        C  0.01246917  0.02560701  0.51298973    -0.22700
C253        C  0.37403595  0.41750596  0.98967886    -0.18000
C254        C  0.48964147  0.43907550  0.01879335    -0.18000
C255        C  0.45835360  0.05724918  0.54170353    -0.18000
C256        C  0.34882595  0.03149607  0.49440256    -0.18000
H257        H  0.39830940  0.36213068  0.04532208     0.14900
H258        H  0.46148701  0.37390138  0.06186539     0.14900
H259        H  0.34492381  0.08838761  0.54462371     0.14900
H260        H  0.40329763  0.09992690  0.57440785     0.14900
H261        H  0.32489089  0.43984817  0.92978186     0.13100
H262        H  0.31076845  0.50302217  0.93294523     0.13100
H263        H  0.05681736  0.49898216  0.48268779     0.13100
H264        H  0.03028454  0.04541966  0.51499736     0.13100
H265        H  0.43267706  0.45900924  0.97689438     0.26400
H266        H  0.42188411  0.02527999  0.48330692     0.26400
N267        N  0.49020122  0.09128904  0.59097691    -0.03200
C268        C  0.48818116  0.09172575  0.63860728    -0.00600
C269        C  0.46163066  0.06991636  0.66407501    -0.23500
C270        C  0.44735035  0.05541485  0.63128946    -0.23700
C271        C  0.46526194  0.06886900  0.58651849    -0.00700
H272        H  0.45378063  0.06474453  0.70243002     0.13000
H273        H  0.42643817  0.03661037  0.63925115     0.13100
C274        C  0.23447881  0.14677543  0.89010751     0.42700
N275        N  0.19851745  0.16391770  0.84449476     0.01600
C276        C  0.22381291  0.31228375  0.68868406    -0.06300
H277        H  0.19897725  0.31851724  0.87525036     0.07100
C278        C  0.07817667  0.27992616  0.88371820    -0.06600
Co279      Co  0.22822564  0.22376183  0.77643798     0.74200
N280        N  0.20809756  0.28212695  0.82702780    -0.25800
Co281      Co  0.17096515  0.28840223  0.78301066     0.74100
C282        C  0.09245756  0.31102939  0.89432655     0.42800
N283        N  0.09751993  0.19477106  0.86700263     0.01200
N284        N  0.13015721  0.29063921  0.84122766     0.01300
N285        N  0.26005150  0.26946145  0.68526769    -0.46700
H286        H  0.27504056  0.18828853  0.85375165     0.07100
N287        N  0.22975291  0.25735456  0.82365410     0.01600
N288        N  0.13387455  0.28950144  0.73949916     0.01300
C289        C  0.10821550  0.29855177  0.67996061     0.42900
N290        N  0.12015262  0.17066476  0.86608101    -0.25300
C291        C  0.23957094  0.18543719  0.68794624    -0.06200
N292        N  0.20321322  0.13996825  0.87853991    -0.46400
N293        N  0.13525474  0.30862609  0.69837045    -0.46600
C294        C  0.21999925  0.15916138  0.67301413     0.42700
N295        N  0.23291301  0.26299929  0.72111268     0.01600
N296        N  0.11886536  0.16975747  0.76605615    -0.25300
N297        N  0.22524176  0.18536247  0.83212436    -0.25800
N298        N  0.09667874  0.19398463  0.76628753     0.01200
H299        H  0.12251479  0.12432909  0.73512195     0.07100
H300        H  0.06849496  0.25510698  0.71005939     0.07200
N301        N  0.21143154  0.28773962  0.72412080    -0.25800
N302        N  0.10330874  0.26921143  0.85073747    -0.25400
N303        N  0.19511731  0.16774180  0.74304507     0.01600
C304        C  0.23907739  0.27760945  0.88503927     0.43000
C305        C  0.11110310  0.14917239  0.90598708    -0.06700
N306        N  0.10749269  0.26741633  0.74908701    -0.25400
H307        H  0.05173102  0.26950694  0.89391495     0.07100
N308        N  0.24851643  0.25392907  0.85731355    -0.46700
H309        H  0.12298658  0.12561946  0.91343921     0.07100
C310        C  0.07916760  0.16063828  0.72291587     0.42800
C311        C  0.24931088  0.17656490  0.85859648    -0.06200
Co312      Co  0.15818984  0.16727542  0.80548467     0.73800
N313        N  0.07266943  0.19070470  0.90583834    -0.46400
C314        C  0.25650896  0.30027094  0.66292684     0.43100
N315        N  0.19313690  0.14932218  0.70930894    -0.46400
Co316      Co  0.10040426  0.23149107  0.80852405     0.73900
C317        C  0.09006954  0.27097394  0.71325219    -0.06700
C318        C  0.21268177  0.29704758  0.86422662    -0.06300
N319        N  0.22185159  0.18937458  0.73132888    -0.25800
N320        N  0.12460895  0.31594724  0.86596751    -0.46600
H321        H  0.21283834  0.33655229  0.68442822     0.07100
C322        C  0.10989578  0.14753663  0.73992445    -0.06700
Cl323      Cl  0.16438632  0.22774929  0.79355639    -0.49700
C324        C  0.07953109  0.16239069  0.93200269     0.42900
H325        H  0.26329706  0.19904234  0.66923663     0.07100
N326        N  0.07204630  0.18930390  0.74137970    -0.46400
C327        C  0.01347218  0.10356740  0.65564442    -0.05900
C328        C  0.01741095  0.13812706  0.64264513    -0.17000
C329        C  0.03837285  0.15750552  0.66398999     0.11300
C330        C  0.05572830  0.14218633  0.69954647    -0.05800
C331        C  0.05162302  0.10768716  0.71251704    -0.17000
C332        C  0.03092329  0.08831555  0.69125563     0.11400
S333        S  0.04255157  0.20141263  0.64351152    -0.32000
S334        S  0.02862282  0.04420022  0.71128496    -0.32000
H335        H  0.52414288  0.04228744  0.67103459     0.29400
H336        H  0.07818935  0.20452131  0.64591845     0.29400
H337        H  0.00389603  0.15016447  0.61585572     0.19900
H338        H  0.06462770  0.09551725  0.73978794     0.20000
C339        C  0.05491292  0.14378167  0.97226549    -0.05900
C340        C  0.06917795  0.12466908  0.00752784    -0.17000
C341        C  0.05104316  0.10191242  0.54147829     0.11300
C342        C  0.01410049  0.10284585  0.54796889    -0.07000
C343        C  0.99894161  0.12453652  0.51631889    -0.17000
C344        C  0.01815791  0.14312675  0.97545317     0.11400
S345        S  0.07366924  0.07344982  0.57756643    -0.32000
S346        S  0.99708993  0.16385844  0.92985468    -0.32000
H347        H  0.02106814  0.15341756  0.89206065     0.29400
H348        H  0.04693250  0.04869519  0.58912684     0.29400
H349        H  0.09736011  0.12459039  0.00491770     0.19900
H350        H  0.46820890  0.13130798  0.52333612     0.20000
C351        C  0.25975869  0.08119905  0.59675322    -0.05900
C352        C  0.22822494  0.09513483  0.58899207    -0.17000
C353        C  0.21532750  0.12216173  0.61139320     0.11300
C354        C  0.23501842  0.13597102  0.64084363    -0.05800
C355        C  0.26716090  0.12282283  0.64689389    -0.17000
C356        C  0.27931906  0.09510225  0.62625048     0.11400
S357        S  0.17337031  0.13730530  0.60200513    -0.32000
S358        S  0.31847241  0.07667426  0.64139316    -0.32000
H359        H  0.33340746  0.10619091  0.65045823     0.29400
H360        H  0.17845160  0.16949557  0.61255085     0.29400
H361        H  0.21341905  0.08460657  0.56601020     0.19900
H362        H  0.28152246  0.13263439  0.67094828     0.20000
C363        C  0.25240474  0.12434316  0.92235130    -0.05900
C364        C  0.24681680  0.09003430  0.92522554    -0.17000
C365        C  0.25951411  0.06779511  0.46000328     0.11300
C366        C  0.28135522  0.07962617  0.48864222    -0.05800
C367        C  0.28948706  0.11367457  0.98184131    -0.17000
C368        C  0.27400879  0.13631329  0.95123794     0.11400
S369        S  0.24790156  0.02448898  0.46354490    -0.32000
S370        S  0.27883823  0.18019946  0.95369431    -0.32000
H371        H  0.30143115  0.17778562  0.98654211     0.29400
H372        H  0.24306847  0.01750375  0.51334784     0.29400
H373        H  0.23012925  0.08053255  0.90365761     0.19900
H374        H  0.30492789  0.12264036  0.00527915     0.20000
C375        C  0.07711729  0.36778372  0.57369417    -0.05900
C376        C  0.05124271  0.34918479  0.60758319    -0.17000
C377        C  0.06009358  0.32467787  0.64137890     0.11300
C378        C  0.09594992  0.31830599  0.64027235    -0.05800
C379        C  0.12154664  0.33482885  0.60319104    -0.17000
C380        C  0.11245298  0.35968985  0.56996273     0.11400
S381        S  0.02542542  0.30642077  0.68919972    -0.32000
S382        S  0.14708805  0.38231145  0.52668455    -0.32000
H383        H  0.12591352  0.39480893  0.49456051     0.29400
H384        H  0.99712918  0.31658650  0.66746474     0.29400
H385        H  0.02424856  0.35648994  0.61076665     0.19900
H386        H  0.14901692  0.32972708  0.60181280     0.20000
C387        C  0.04971296  0.38647304  0.98073175    -0.05900
C388        C  0.03660327  0.35348716  0.99274511    -0.17000
C389        C  0.04838284  0.32861745  0.96441049     0.11300
C390        C  0.07458091  0.33657357  0.92274301    -0.05800
C391        C  0.08595404  0.37000922  0.90916348    -0.17000
C392        C  0.07352999  0.39476445  0.93706035     0.11400
S393        S  0.03251225  0.28642633  0.98555614    -0.32000
S394        S  0.08700304  0.43488206  0.42063981    -0.32000
H395        H  0.05391680  0.44879965  0.43002213     0.29400
H396        H  0.00618174  0.29337856  0.02337564     0.29400
H397        H  0.01938355  0.34642228  0.02669707     0.19900
H398        H  0.10556249  0.37691398  0.87708441     0.20000
C399        C  0.28287386  0.31891559  0.62300117    -0.05900
C400        C  0.27528522  0.35101974  0.60333471    -0.17000
C401        C  0.29624281  0.36776608  0.56157098     0.11300
C402        C  0.32599836  0.35253303  0.53858594    -0.05800
C403        C  0.33534421  0.32194292  0.56049694    -0.17000
C404        C  0.31460580  0.30516164  0.60213425     0.11400
S405        S  0.28180844  0.40711949  0.53750754    -0.32000
S406        S  0.32982153  0.26572568  0.62486783    -0.32000
H407        H  0.32748305  0.27409917  0.67107617     0.29400
H408        H  0.28997435  0.40139042  0.48992018     0.29400
H409        H  0.25179091  0.36268585  0.61890327     0.19900
H410        H  0.35819129  0.31010520  0.54315464     0.20000
C411        C  0.26116092  0.28746350  0.91732583    -0.05900
C412        C  0.29577524  0.27662004  0.91127237    -0.17000
C413        C  0.32097168  0.29225955  0.92979442     0.11300
C414        C  0.31162781  0.31985891  0.95344984    -0.05800
C415        C  0.27606998  0.32674088  0.96663202    -0.17000
C416        C  0.25051025  0.31002686  0.94987358     0.11400
S417        S  0.36519500  0.27794830  0.91856210    -0.32000
S418        S  0.20530546  0.31887833  0.97072925    -0.32000
H419        H  0.19197598  0.28777020  0.96493784     0.29400
H420        H  0.37588366  0.29200072  0.95566397     0.29400
H421        H  0.30405292  0.25753166  0.88916431     0.19900
H422        H  0.27031805  0.34773103  0.48702937     0.20000
N423        N  0.34562155  0.86556314  0.99392205    -0.03200
C424        C  0.34265031  0.85009939  0.46050223    -0.00600
C425        C  0.36739871  0.85924253  0.41950358    -0.23500
C426        C  0.38719461  0.88462844  0.42848279    -0.23700
C427        C  0.37292283  0.88720431  0.97322631    -0.00700
H428        H  0.36974887  0.84946514  0.38602897     0.13000
H429        H  0.40804932  0.89880761  0.40334128     0.13100
N430        N  0.04244582  0.90478782  0.03426014    -0.03200
C431        C  0.01572725  0.92524931  0.04799060    -0.00600
C432        C  0.01609956  0.93318844  0.09296493    -0.23500
C433        C  0.04366916  0.91777949  0.10784298    -0.23700
C434        C  0.05946990  0.90092215  0.07149376    -0.00700
H435        H  0.53533399  0.97065349  0.07668364     0.13000
H436        H  0.05091979  0.91804594  0.14215714     0.13100
N437        N  0.29261852  0.56177706  0.03145500    -0.03200
C438        C  0.30941797  0.53296522  0.02705098    -0.00600
C439        C  0.29949808  0.51115820  0.06896789    -0.23500
C440        C  0.27795134  0.52777696  0.10080184    -0.23700
C441        C  0.27560727  0.55924849  0.07744924    -0.00700
H442        H  0.31101254  0.48760811  0.07792511     0.13000
H443        H  0.26903178  0.51936890  0.13841901     0.13100
N444        N  0.44170020  0.94364604  0.49684056    -0.36400
N445        N  0.37738871  0.97923895  0.49354637    -0.56900
N446        N  0.40690281  0.53720714  0.00622285    -0.36400
N447        N  0.47041442  0.00138009  0.01421117    -0.56900
C448        C  0.41693805  0.91891669  0.50789252     0.27200
C449        C  0.47018853  0.93222433  0.51335899     0.27200
C450        C  0.37338294  0.54728595  0.01145506     0.27200
C451        C  0.42320489  0.55401516  0.03385934     0.27200
C452        C  0.37068730  0.95065031  0.47760957     0.35800
C453        C  0.35468500  0.99858018  0.97737601     0.35800
C454        C  0.49979652  0.98476895  0.00049693     0.35800
C455        C  0.47844323  0.52361856  0.02485988     0.35800
C456        C  0.42986178  0.89112440  0.53099916    -0.21600
C457        C  0.46331506  0.89980608  0.53546852    -0.21600
C458        C  0.36990982  0.57359781  0.03771649    -0.21600
C459        C  0.40102292  0.57739711  0.05261219    -0.21600
C460        C  0.34636550  0.95554826  0.44819176    -0.22700
C461        C  0.33722287  0.98811445  0.44740923    -0.22700
C462        C  0.02186010  0.99536237  0.01258075    -0.22700
C463        C  0.01567787  0.53750335  0.00105492    -0.22700
C464        C  0.38497226  0.92007385  0.49200555    -0.18000
C465        C  0.50143623  0.95123590  0.50935985    -0.18000
C466        C  0.45677225  0.54776456  0.04482861    -0.18000
C467        C  0.34525116  0.53051271  0.99825542    -0.18000
H468        H  0.41638832  0.86732005  0.54374213     0.14900
H469        H  0.47995210  0.88436566  0.55436346     0.14900
H470        H  0.34709161  0.58801111  0.04693223     0.14900
H471        H  0.40640368  0.59492123  0.07559916     0.14900
H472        H  0.33565465  0.93743375  0.43015978     0.13100
H473        H  0.31732293  0.99987586  0.43011748     0.13100
H474        H  0.04838264  0.98695909  0.00973417     0.13100
H475        H  0.03122103  0.56005388  0.99656253     0.13100
H476        H  0.44050857  0.96604639  0.47507446     0.26400
H477        H  0.41740314  0.51887159  0.98642315     0.26400
N478        N  0.48967130  0.58059163  0.09362294    -0.03200
C479        C  0.48680166  0.58207213  0.14100309    -0.00600
C480        C  0.45930381  0.56144562  0.16671951    -0.23500
C481        C  0.44510393  0.54665611  0.13419122    -0.23700
C482        C  0.46408324  0.55888038  0.08950970    -0.00700
H483        H  0.45057934  0.55747747  0.20500722     0.13000
H484        H  0.42326558  0.52882641  0.14220468     0.13100
C485        C  0.22894615  0.65200307  0.40109569     0.42700
N486        N  0.19692932  0.67048932  0.35051772     0.01600
C487        C  0.23200447  0.81993064  0.19927789    -0.06300
H488        H  0.19941426  0.82607613  0.38429125     0.07100
C489        C  0.07841021  0.78797878  0.38269103    -0.06600
Co490      Co  0.23098720  0.73053529  0.28732386     0.74200
N491        N  0.20881287  0.78838605  0.33865161    -0.25800
Co492      Co  0.17538711  0.79633474  0.29020937     0.74100
C493        C  0.09247695  0.81777494  0.39797059     0.42800
N494        N  0.09675224  0.70339968  0.36316803     0.01200
N495        N  0.13167162  0.79849217  0.34476103     0.01300
N496        N  0.26686282  0.77604469  0.19727421    -0.46700
H497        H  0.27098219  0.69331381  0.37069082     0.07100
N498        N  0.22995310  0.76322237  0.33700945     0.01600
N499        N  0.14278160  0.79933560  0.24127655     0.01300
C500        C  0.12738024  0.80871401  0.17346143     0.42900
N501        N  0.11929302  0.67921269  0.36311201    -0.25300
C502        C  0.24819160  0.69205713  0.19821514    -0.06200
N503        N  0.19921722  0.64589162  0.38499392    -0.46400
N504        N  0.15047076  0.81751920  0.19908655    -0.46600
C505        C  0.22930417  0.66685222  0.17993946     0.42700
N506        N  0.23935939  0.77051008  0.23279909     0.01600
N507        N  0.12321453  0.67998229  0.26161372    -0.25300
N508        N  0.22390842  0.69155902  0.34218217    -0.25800
N509        N  0.10124770  0.70440655  0.26050929     0.01200
H510        H  0.12624074  0.63349945  0.23352301     0.07100
H511        H  0.08151676  0.76985173  0.19755276     0.07200
N512        N  0.21863779  0.79582917  0.23486994    -0.25800
N513        N  0.10434715  0.77807893  0.34994432    -0.25400
N514        N  0.19982572  0.67641361  0.24709295     0.01600
C515        C  0.23766785  0.78419188  0.39891747     0.43000
C516        C  0.10999772  0.65784389  0.40283816    -0.06700
N517        N  0.11552630  0.77869042  0.24576351    -0.25400
H518        H  0.05248876  0.77657872  0.39142268     0.07100
N519        N  0.24733559  0.75985189  0.37221784    -0.46700
H520        H  0.12246391  0.63473280  0.41114368     0.07100
C521        C  0.08355887  0.66979517  0.21832357     0.42800
C522        C  0.24551540  0.68198655  0.37195683    -0.06200
Co523      Co  0.15979435  0.67590919  0.30595351     0.73800
N524        N  0.07149643  0.69935817  0.40175894    -0.46400
C525        C  0.26427107  0.80684027  0.17410912     0.43100
N526        N  0.19996663  0.65817683  0.21260265    -0.46400
Co527      Co  0.10334431  0.74144014  0.30490357     0.73900
C528        C  0.10348419  0.78333543  0.20484585    -0.06700
C529        C  0.21238446  0.80370031  0.37581806    -0.06300
N530        N  0.22742683  0.69693012  0.23941522    -0.25800
N531        N  0.12566650  0.82229009  0.37226974    -0.46600
H532        H  0.22100896  0.84405361  0.19314829     0.07100
C533        C  0.11429645  0.65724408  0.23610272    -0.06700
Cl534      Cl  0.16727748  0.73603357  0.29720851    -0.49700
C535        C  0.07842057  0.67105409  0.42827007     0.42900
H536        H  0.27326090  0.70452001  0.18291905     0.07100
N537        N  0.07670792  0.69907890  0.23554087    -0.46400
C538        C  0.01660632  0.60905553  0.15577255    -0.05900
C539        C  0.01981181  0.64354044  0.14186883    -0.17000
C540        C  0.04094998  0.66387568  0.16168715     0.11300
C541        C  0.05941447  0.64995995  0.19690859    -0.05800
C542        C  0.05594367  0.61546264  0.21098581    -0.17000
C543        C  0.03514245  0.59503468  0.19101729     0.11400
S544        S  0.04413948  0.70722838  0.13924301    -0.32000
S545        S  0.03448036  0.55112402  0.21160780    -0.32000
H546        H  0.51987054  0.53227431  0.17891289     0.29400
H547        H  0.08014119  0.71020000  0.13949979     0.29400
H548        H  0.00563476  0.65483959  0.11535874     0.19900
H549        H  0.06970629  0.60406487  0.23790096     0.20000
C550        C  0.05531949  0.65273738  0.47041352    -0.05900
C551        C  0.07157643  0.63357302  0.50361471    -0.17000
C552        C  0.05167878  0.60669690  0.04085967     0.11300
C553        C  0.01485642  0.60843328  0.04864501    -0.07000
C554        C  0.99937047  0.63018207  0.01743138    -0.17000
C555        C  0.01844949  0.65072239  0.47604001     0.11400
S556        S  0.07391665  0.57646387  0.07482747    -0.32000
S557        S  0.99513431  0.67113318  0.43280143    -0.32000
H558        H  0.01822272  0.66158040  0.39344775     0.29400
H559        H  0.04707369  0.55182588  0.08304692     0.29400
H560        H  0.09991118  0.63433075  0.49906660     0.19900
H561        H  0.46778505  0.62079006  0.02667607     0.20000
C562        C  0.26549102  0.58819000  0.10215616    -0.05900
C563        C  0.23627063  0.60567082  0.09214829    -0.17000
C564        C  0.22553464  0.63341084  0.11420297     0.11300
C565        C  0.24429333  0.64390883  0.14713244    -0.05800
C566        C  0.27413341  0.62732192  0.15588713    -0.17000
C567        C  0.28486636  0.59941406  0.13446110     0.11400
S568        S  0.18736693  0.65407634  0.09962843    -0.32000
S569        S  0.32248998  0.57966137  0.15304570    -0.32000
H570        H  0.32876668  0.55571290  0.12261764     0.29400
H571        H  0.19673508  0.68535416  0.10991113     0.29400
H572        H  0.22154283  0.59747453  0.06726599     0.19900
H573        H  0.28804285  0.63497226  0.18201207     0.20000
C574        C  0.24566908  0.62836417  0.43338288    -0.05900
C575        C  0.24069411  0.59422012  0.43347648    -0.17000
C576        C  0.25953040  0.57135480  0.96517647     0.11300
C577        C  0.28159177  0.58340139  0.99342871    -0.05800
C578        C  0.28462348  0.61569989  0.49008564    -0.17000
C579        C  0.26741161  0.63906485  0.46308906     0.11400
S580        S  0.24583558  0.52839656  0.97145327    -0.32000
S581        S  0.27140467  0.68173879  0.47239575    -0.32000
H582        H  0.23659838  0.68921108  0.46923265     0.29400
H583        H  0.23818694  0.52424450  0.02149466     0.29400
H584        H  0.22387725  0.58554643  0.41143114     0.19900
H585        H  0.30045416  0.62419649  0.51344385     0.20000
C586        C  0.08770527  0.87811321  0.07799948    -0.05900
C587        C  0.08159237  0.84435448  0.07653870    -0.17000
C588        C  0.09891934  0.82044992  0.10171682     0.11300
C589        C  0.12041179  0.83052287  0.13160282    -0.05800
C590        C  0.13131417  0.86399613  0.12591038    -0.17000
C591        C  0.11545957  0.88793730  0.09881413     0.11400
S592        S  0.09267942  0.77796697  0.09413887    -0.32000
S593        S  0.12885568  0.93072591  0.09729372    -0.32000
H594        H  0.11204357  0.94406935  0.06050126     0.29400
H595        H  0.12371651  0.76711649  0.10861418     0.29400
H596        H  0.06121884  0.83627330  0.05950701     0.19900
H597        H  0.14987920  0.87208778  0.14597982     0.20000
C598        C  0.04977178  0.88833310  0.49507592    -0.05900
C599        C  0.02827729  0.86224671  0.48835364    -0.17000
C600        C  0.04047054  0.83903169  0.45717535     0.11300
C601        C  0.07560740  0.84181107  0.43086952    -0.05800
C602        C  0.09648624  0.86901089  0.43636225    -0.17000
C603        C  0.08419784  0.89188581  0.46762137     0.11400
S604        S  0.01074223  0.80530585  0.45511755    -0.32000
S605        S  0.11489148  0.92575857  0.96520994    -0.32000
H606        H  0.08847540  0.94698064  0.98185346     0.29400
H607        H  0.97979251  0.81917555  0.47696862     0.29400
H608        H  0.00266740  0.85828954  0.51068563     0.19900
H609        H  0.12324477  0.87234128  0.41673017     0.20000
C610        C  0.28970847  0.82371118  0.13150831    -0.05900
C611        C  0.28414582  0.85673089  0.11324075    -0.17000
C612        C  0.30386031  0.87234494  0.06972874     0.11300
C613        C  0.33089331  0.85531886  0.04389062    -0.05800
C614        C  0.33839936  0.82351881  0.06409651    -0.17000
C615        C  0.31832330  0.80752472  0.10684869     0.11400
S616        S  0.29145013  0.91296087  0.04781112    -0.32000
S617        S  0.32967560  0.76575377  0.12564564    -0.32000
H618        H  0.33379990  0.77269827  0.17074485     0.29400
H619        H  0.29299145  0.90586552  0.00128063     0.29400
H620        H  0.26309626  0.87019115  0.13156774     0.19900
H621        H  0.35907635  0.81020196  0.04466284     0.20000
C622        C  0.25996693  0.79503967  0.43053054    -0.05900
C623        C  0.29281286  0.78054474  0.42935069    -0.17000
C624        C  0.31948923  0.79585301  0.44554616     0.11300
C625        C  0.31342632  0.82646852  0.46260882    -0.05800
C626        C  0.27920602  0.83788730  0.47117447    -0.17000
C627        C  0.25208572  0.82190890  0.45659611     0.11400
S628        S  0.36138946  0.77652388  0.44020909    -0.32000
S629        S  0.20867239  0.83726993  0.47222443    -0.32000
H630        H  0.19144688  0.80647186  0.47396640     0.29400
H631        H  0.37337935  0.79271183  0.47445145     0.29400
H632        H  0.29879551  0.75844931  0.41263467     0.19900
H633        H  0.27239193  0.85317868  0.99095150     0.20000
N634        N  0.34586550  0.86913327  0.49457774    -0.03200
C635        C  0.34183805  0.84693180  0.95956699    -0.00600
C636        C  0.36559956  0.85688950  0.91787128    -0.23500
C637        C  0.38541749  0.88232120  0.92663059    -0.23700
C638        C  0.37371954  0.89019724  0.47450973    -0.00700
H639        H  0.36747669  0.84737955  0.88426273     0.13000
H640        H  0.40570484  0.89692047  0.90106363     0.13100
N641        N  0.03957576  0.90538100  0.53660071    -0.03200
C642        C  0.01241017  0.92574978  0.54803774    -0.00600
C643        C  0.01122360  0.93473956  0.59277921    -0.23500
C644        C  0.03813958  0.91974763  0.61004897    -0.23700
C645        C  0.05514245  0.90216055  0.57524185    -0.00700
H646        H  0.53607332  0.97010684  0.57953359     0.13000
H647        H  0.04402134  0.92064930  0.64501160     0.13100
N648        N  0.28964021  0.55860760  0.52822544    -0.03200
C649        C  0.30701145  0.53020602  0.52226019    -0.00600
C650        C  0.29761207  0.50756779  0.56343028    -0.23500
C651        C  0.27598409  0.52323127  0.59637970    -0.23700
C652        C  0.27278678  0.55495309  0.57442099    -0.00700
H653        H  0.30960126  0.48409305  0.57127243     0.13000
H654        H  0.26743900  0.51398008  0.63380408     0.13100
N655        N  0.44125588  0.94111996  0.99473937    -0.36400
N656        N  0.37648084  0.97607315  0.99349545    -0.56900
N657        N  0.40453487  0.53745303  0.50039129    -0.36400
N658        N  0.47106342  0.00311704  0.51693916    -0.56900
C659        C  0.41685574  0.91605093  0.00560665     0.27200
C660        C  0.46986459  0.93011544  0.01134240     0.27200
C661        C  0.37066208  0.54652815  0.50578975     0.27200
C662        C  0.42040430  0.55506280  0.52752553     0.27200
C663        C  0.36954207  0.94748910  0.97761331     0.35800
C664        C  0.35717857  0.00222287  0.47483192     0.35800
C665        C  0.50053224  0.98648074  0.50361237     0.35800
C666        C  0.47618145  0.52573798  0.51877363     0.35800
C667        C  0.43017159  0.88841052  0.02844904    -0.21600
C668        C  0.46341677  0.89757981  0.03320023    -0.21600
C669        C  0.36645985  0.57304351  0.53170692    -0.21600
C670        C  0.39758060  0.57806055  0.54598338    -0.21600
C671        C  0.34369639  0.95199784  0.95054662    -0.22700
C672        C  0.33380455  0.98423559  0.95129735    -0.22700
C673        C  0.02184764  0.99417529  0.50475601    -0.22700
C674        C  0.01828791  0.53584827  0.50370368    -0.22700
C675        C  0.38449132  0.91701295  0.99074713    -0.18000
C676        C  0.50083648  0.94955864  0.00756873    -0.18000
C677        C  0.45410720  0.54973775  0.53851362    -0.18000
C678        C  0.34298993  0.52862325  0.49322919    -0.18000
H679        H  0.41696959  0.86447725  0.04120391     0.14900
H680        H  0.48012110  0.88235172  0.05223137     0.14900
H681        H  0.34317688  0.58668464  0.54153630     0.14900
H682        H  0.40249569  0.59601122  0.56860785     0.14900
H683        H  0.33218719  0.93368870  0.93364324     0.13100
H684        H  0.31283806  0.99556159  0.93591217     0.13100
H685        H  0.04805714  0.98506075  0.50154266     0.13100
H686        H  0.03475232  0.55736580  0.50299772     0.13100
H687        H  0.43965840  0.96361244  0.97332324     0.26400
H688        H  0.41569835  0.51908040  0.48091769     0.26400
N689        N  0.48686198  0.58237335  0.58806912    -0.03200
C690        C  0.48353181  0.58418556  0.63545133    -0.00600
C691        C  0.45518160  0.56440379  0.66065773    -0.23500
C692        C  0.44108067  0.54977376  0.62784367    -0.23700
C693        C  0.46091307  0.56123133  0.58336821    -0.00700
H694        H  0.44589892  0.56076051  0.69884249     0.13000
H695        H  0.41880455  0.53245020  0.63557632     0.13100
C696        C  0.23333499  0.65021816  0.89688224     0.42700
N697        N  0.20004175  0.66800644  0.84776620     0.01600
C698        C  0.23140741  0.81898061  0.69863459    -0.06300
H699        H  0.20064206  0.82098398  0.88559600     0.07100
C700        C  0.08087278  0.78464594  0.88540432    -0.06600
Co701      Co  0.23274275  0.72825770  0.78313343     0.74200
N702        N  0.21123423  0.78539705  0.83659049    -0.25800
Co703      Co  0.17649660  0.79359216  0.79007229     0.74100
C704        C  0.09488535  0.81489007  0.89957549     0.42800
N705        N  0.09934755  0.70014096  0.86500382     0.01200
N706        N  0.13380631  0.79529903  0.84629253     0.01300
N707        N  0.26697053  0.77570913  0.69327201    -0.46700
H708        H  0.27517002  0.69126491  0.86394335     0.07100
N709        N  0.23278775  0.76058461  0.83328064     0.01600
N710        N  0.14243486  0.79682702  0.74311322     0.01300
C711        C  0.12392662  0.80797220  0.67772706     0.42900
N712        N  0.12187132  0.67593286  0.86417319    -0.25300
C713        C  0.24781427  0.68884089  0.69425026    -0.06200
N714        N  0.20296429  0.64383160  0.88253010    -0.46400
N715        N  0.14835459  0.81610756  0.70176312    -0.46600
C716        C  0.22842800  0.66294291  0.67791936     0.42700
N717        N  0.23967666  0.76888176  0.72901267     0.01600
N718        N  0.12369768  0.67718698  0.76312009    -0.25300
N719        N  0.22717323  0.68900707  0.83765034    -0.25800
N720        N  0.10172981  0.70163789  0.76300703     0.01200
H721        H  0.12630786  0.63107620  0.73411024     0.07100
H722        H  0.07862439  0.76859358  0.70305503     0.07200
N723        N  0.21863366  0.79390042  0.73299690    -0.25800
N724        N  0.10656699  0.77467583  0.85242711    -0.25400
N725        N  0.20023877  0.67377040  0.74511625     0.01600
C726        C  0.23982904  0.77949811  0.89705744     0.43000
C727        C  0.11223010  0.65386591  0.90321729    -0.06700
N728        N  0.11520893  0.77602502  0.74851381    -0.25400
H729        H  0.05498548  0.77318508  0.89452992     0.07100
N730        N  0.25011269  0.75629098  0.86855155    -0.46700
H731        H  0.12429090  0.63037524  0.91044442     0.07100
C732        C  0.08310082  0.66744213  0.72119897     0.42800
C733        C  0.24961427  0.67975882  0.86634463    -0.06200
Co734      Co  0.16148415  0.67312058  0.80548346     0.73800
N735        N  0.07397541  0.69557617  0.90336477    -0.46400
C736        C  0.26383300  0.80710148  0.67217634     0.43100
N737        N  0.19967447  0.65472434  0.71174558    -0.46400
Co738      Co  0.10470118  0.73837059  0.80730124     0.73900
C739        C  0.10129543  0.78166090  0.70915041    -0.06700
C740        C  0.21442643  0.79946554  0.87500480    -0.06300
N741        N  0.22777294  0.69451864  0.73563035    -0.25800
N742        N  0.12789678  0.81941578  0.87326607    -0.46600
H743        H  0.22043213  0.84327745  0.69494362     0.07100
C744        C  0.11423187  0.65466680  0.73770592    -0.06700
Cl745      Cl  0.16878088  0.73330458  0.79655491    -0.49700
C746        C  0.08046140  0.66678235  0.92899255     0.42900
H747        H  0.27287491  0.70097175  0.67788006     0.07100
N748        N  0.07662584  0.69655924  0.73891820    -0.46400
C749        C  0.01641574  0.60908969  0.65556177    -0.05900
C750        C  0.01748554  0.64385526  0.64586446    -0.17000
C751        C  0.03835348  0.66349374  0.66705293     0.11300
C752        C  0.05894729  0.64840130  0.69891571    -0.05800
C753        C  0.05740547  0.61358557  0.70892999    -0.17000
C754        C  0.03660323  0.59391737  0.68799637     0.11400
S755        S  0.03827198  0.70758712  0.65087292    -0.32000
S756        S  0.03805805  0.54953252  0.70384215    -0.32000
H757        H  0.51489724  0.53336193  0.67450049     0.29400
H758        H  0.07465596  0.71180294  0.64716315     0.29400
H759        H  0.00186380  0.65584722  0.62162159     0.19900
H760        H  0.07257475  0.60131437  0.73351821     0.20000
C761        C  0.05678578  0.64844918  0.97074208    -0.05900
C762        C  0.07213389  0.62712302  0.00277541    -0.17000
C763        C  0.05221834  0.61169242  0.54088039     0.11300
C764        C  0.01529231  0.61040701  0.54749578    -0.07000
C765        C  0.99884959  0.63030815  0.51520883    -0.17000
C766        C  0.01981776  0.64976759  0.97813586     0.11400
S767        S  0.07652985  0.58348460  0.57473980    -0.32000
S768        S  0.99700872  0.67398652  0.93748834    -0.32000
H769        H  0.01708875  0.66318243  0.89671531     0.29400
H770        H  0.05210018  0.55685576  0.58134012     0.29400
H771        H  0.10039016  0.62547831  0.99724559     0.19900
H772        H  0.46761083  0.62378956  0.52014981     0.20000
C773        C  0.26239885  0.58319913  0.60065505    -0.05900
C774        C  0.23412646  0.60187506  0.58990047    -0.17000
C775        C  0.22414061  0.62974917  0.61204878     0.11300
C776        C  0.24264309  0.63916803  0.64597226    -0.05800
C777        C  0.27092994  0.62074142  0.65662513    -0.17000
C778        C  0.28096428  0.59278199  0.63486538     0.11400
S779        S  0.18719304  0.65194729  0.59620791    -0.32000
S780        S  0.31639499  0.57034222  0.65540632    -0.32000
H781        H  0.32763018  0.55345878  0.61664685     0.29400
H782        H  0.19735719  0.68275276  0.60719918     0.29400
H783        H  0.21970358  0.59467411  0.56404746     0.19900
H784        H  0.28426721  0.62723657  0.68401101     0.20000
C785        C  0.24989916  0.62782687  0.93077423    -0.05900
C786        C  0.24504892  0.59347096  0.93326137    -0.17000
C787        C  0.25607095  0.57089487  0.46284535     0.11300
C788        C  0.27878294  0.58151055  0.49131632    -0.05800
C789        C  0.28705849  0.61778475  0.99021074    -0.17000
C790        C  0.27047666  0.64010121  0.96066471     0.11400
S791        S  0.24332631  0.52804230  0.46509047    -0.32000
S792        S  0.27243072  0.68380142  0.96585576    -0.32000
H793        H  0.29317173  0.68160223  0.00097563     0.29400
H794        H  0.23648773  0.52137506  0.51507201     0.29400
H795        H  0.22874674  0.58375061  0.91138705     0.19900
H796        H  0.30245405  0.62702561  0.01348627     0.20000
C797        C  0.08252960  0.87903626  0.58470862    -0.05900
C798        C  0.07667163  0.84533286  0.58250782    -0.17000
C799        C  0.09377590  0.82116909  0.60764207     0.11300
C800        C  0.11498536  0.83084546  0.63818937    -0.05800
C801        C  0.12486022  0.86446127  0.63455730    -0.17000
C802        C  0.10924024  0.88865329  0.60755872     0.11400
S803        S  0.08775845  0.77886409  0.59879430    -0.32000
S804        S  0.12219337  0.93135513  0.60772716    -0.32000
H805        H  0.10770805  0.94487017  0.56875911     0.29400
H806        H  0.11925835  0.76803252  0.61185836     0.29400
H807        H  0.05688225  0.83747392  0.56430102     0.19900
H808        H  0.14291561  0.87233762  0.65551687     0.20000
C809        C  0.05146182  0.88799180  0.99223170    -0.05900
C810        C  0.03025244  0.86115666  0.98716855    -0.17000
C811        C  0.04259808  0.83717426  0.95726399     0.11300
C812        C  0.07766695  0.83986346  0.93067640    -0.05800
C813        C  0.09813033  0.86790168  0.93413818    -0.17000
C814        C  0.08552291  0.89167643  0.96377597     0.11400
S815        S  0.01306770  0.80295817  0.95640296    -0.32000
S816        S  0.11450556  0.92448979  0.47198951    -0.32000
H817        H  0.08902247  0.94566764  0.49099601     0.29400
H818        H  0.98498329  0.81096533  0.99114726     0.29400
H819        H  0.00482247  0.85731523  0.00981634     0.19900
H820        H  0.12477080  0.87126980  0.91410367     0.20000
C821        C  0.28907596  0.82583722  0.63069590    -0.05900
C822        C  0.27984278  0.85704346  0.60972778    -0.17000
C823        C  0.29994640  0.87381709  0.56720662     0.11300
C824        C  0.33040290  0.85940519  0.54439607    -0.05800
C825        C  0.34118379  0.82974719  0.56725868    -0.17000
C826        C  0.32143197  0.81315176  0.60994486     0.11400
S827        S  0.28443059  0.91284636  0.54345697    -0.32000
S828        S  0.33902445  0.77562174  0.63500462    -0.32000
H829        H  0.33417696  0.78490750  0.68098419     0.29400
H830        H  0.29727763  0.90999889  0.49560622     0.29400
H831        H  0.25590174  0.86807176  0.62521753     0.19900
H832        H  0.36462940  0.81860493  0.55024346     0.20000
C833        C  0.26137645  0.78934297  0.93019114    -0.05900
C834        C  0.29489371  0.77620376  0.92741681    -0.17000
C835        C  0.32098682  0.79201399  0.94402350     0.11300
C836        C  0.31363090  0.82191328  0.96279516    -0.05800
C837        C  0.27871705  0.83134379  0.97388194    -0.17000
C838        C  0.25215823  0.81457309  0.95899488     0.11400
S839        S  0.36383191  0.77445391  0.93641939    -0.32000
S840        S  0.20766543  0.82655026  0.97767299    -0.32000
H841        H  0.19244909  0.79555737  0.97494013     0.29400
H842        H  0.37659332  0.79165707  0.96899277     0.29400
H843        H  0.30187785  0.75510917  0.90876813     0.19900
H844        H  0.27383097  0.86060283  0.48610954     0.20000
N845        N  0.84912278  0.36177189  0.99901372    -0.03200
C846        C  0.84385907  0.34658314  0.45784523    -0.00600
C847        C  0.86828894  0.35681159  0.41687041    -0.23500
C848        C  0.88689868  0.38296362  0.42615461    -0.23700
C849        C  0.87552502  0.38445719  0.97864596    -0.00700
H850        H  0.87127419  0.34712729  0.38325757     0.13000
H851        H  0.90738579  0.39777571  0.40123686     0.13100
N852        N  0.54116798  0.40368156  0.03638922    -0.03200
C853        C  0.51269515  0.42226762  0.04891691    -0.00600
C854        C  0.50888868  0.42798187  0.09567645    -0.23500
C855        C  0.53551467  0.41266965  0.11320602    -0.23700
C856        C  0.55491754  0.39824264  0.07651831    -0.00700
H857        H  0.03912933  0.47292439  0.07387111     0.13000
H858        H  0.53985496  0.41144238  0.14930729     0.13100
N859        N  0.78746284  0.05508921  0.03152866    -0.03200
C860        C  0.80465246  0.02657960  0.02654710    -0.00600
C861        C  0.79255675  0.00321449  0.06616986    -0.23500
C862        C  0.76923286  0.01854874  0.09761177    -0.23700
C863        C  0.76794855  0.05078017  0.07623577    -0.00700
H864        H  0.80369077  0.97939174  0.07463825     0.13000
H865        H  0.75853958  0.00875909  0.13434217     0.13100
N866        N  0.94095803  0.44131164  0.49564967    -0.36400
N867        N  0.87682733  0.47663307  0.49444727    -0.56900
N868        N  0.90276118  0.03503691  0.00965941    -0.36400
N869        N  0.97030940  0.50083179  0.01806715    -0.56900
C870        C  0.91631843  0.41642716  0.50666713     0.27200
C871        C  0.96941561  0.43022330  0.51253731     0.27200
C872        C  0.86845909  0.04284003  0.01549373     0.27200
C873        C  0.91833333  0.05369490  0.03601710     0.27200
C874        C  0.86974493  0.44833067  0.47790347     0.35800
C875        C  0.85572120  0.49642523  0.97925127     0.35800
C876        C  0.99963783  0.48510500  0.00140148     0.35800
C877        C  0.97511016  0.02579915  0.02718638     0.35800
C878        C  0.92933149  0.38880985  0.53004499    -0.21600
C879        C  0.96265666  0.39782833  0.53486279    -0.21600
C880        C  0.86325692  0.06913023  0.04175445    -0.21600
C881        C  0.89447576  0.07580246  0.05487084    -0.21600
C882        C  0.84513338  0.45379790  0.44903419    -0.22700
C883        C  0.83617712  0.48638297  0.44926252    -0.22700
C884        C  0.52391701  0.49144003  0.01254436    -0.22700
C885        C  0.51676238  0.03626938  0.00489939    -0.22700
C886        C  0.88419219  0.41755218  0.49106340    -0.18000
C887        C  0.00064548  0.44942404  0.50818785    -0.18000
C888        C  0.95290470  0.05040731  0.04540369    -0.18000
C889        C  0.84162330  0.02487400  0.00100009    -0.18000
H890        H  0.91594564  0.36497763  0.54293089     0.14900
H891        H  0.97934457  0.38260416  0.55396008     0.14900
H892        H  0.83942145  0.08187707  0.05201996     0.14900
H893        H  0.89880824  0.09441774  0.07678855     0.14900
H894        H  0.83425598  0.43609544  0.43052557     0.13100
H895        H  0.81622404  0.49854229  0.43247785     0.13100
H896        H  0.54970030  0.48164869  0.01217483     0.13100
H897        H  0.53286449  0.05791921  0.00467516     0.13100
H898        H  0.93970058  0.46365505  0.47381012     0.26400
H899        H  0.91451029  0.01734776  0.98943245     0.26400
N900        N  0.98760363  0.08667952  0.08938138    -0.03200
C901        C  0.98444318  0.09149784  0.13587426    -0.00600
C902        C  0.95558537  0.07348447  0.16318161    -0.23500
C903        C  0.94101574  0.05671707  0.13296773    -0.23700
C904        C  0.96085294  0.06523156  0.08760543    -0.00700
H905        H  0.94640013  0.07222136  0.20122167     0.13000
H906        H  0.91832379  0.03988036  0.14305225     0.13100
C907        C  0.72908703  0.14629113  0.40182822     0.42700
N908        N  0.69629606  0.16439757  0.35216152     0.01600
C909        C  0.73417315  0.31342136  0.20075947    -0.06300
H910        H  0.70314157  0.31941194  0.38331131     0.07100
C911        C  0.58004799  0.28437348  0.38219262    -0.06600
Co912      Co  0.73135316  0.22320567  0.28669883     0.74200
N913        N  0.71112454  0.28147646  0.33789920    -0.25800
Co914      Co  0.67720456  0.29016913  0.29025951     0.74100
C915        C  0.59488868  0.31338308  0.39793608     0.42800
N916        N  0.59671026  0.19963069  0.36507083     0.01200
N917        N  0.63386416  0.29339198  0.34538595     0.01300
N918        N  0.76853719  0.26916756  0.19754086    -0.46700
H919        H  0.77206382  0.18601157  0.36781653     0.07100
N920        N  0.73205749  0.25614854  0.33569657     0.01600
N921        N  0.64407119  0.29405291  0.24177463     0.01300
C922        C  0.62654561  0.30532880  0.17561227     0.42900
N923        N  0.61849148  0.17483713  0.36587141    -0.25300
C924        C  0.74614853  0.18287422  0.19916591    -0.06200
N925        N  0.69860225  0.14032926  0.38738210    -0.46400
N926        N  0.65084614  0.31308209  0.20016965    -0.46600
C927        C  0.72623995  0.15749212  0.18275380     0.42700
N928        N  0.74024661  0.26307256  0.23188016     0.01600
N929        N  0.62166407  0.17487568  0.26453799    -0.25300
N930        N  0.72393910  0.18476352  0.34197406    -0.25800
N931        N  0.60080145  0.20014461  0.26282524     0.01200
H932        H  0.62306160  0.12850433  0.23625242     0.07100
H933        H  0.58019813  0.26713104  0.20046101     0.07200
N934        N  0.71992040  0.28868193  0.23460794    -0.25800
N935        N  0.60599553  0.27369080  0.35037160    -0.25400
N936        N  0.69790695  0.16901026  0.24933217     0.01600
C937        C  0.74106067  0.27712560  0.39691464     0.43000
C938        C  0.60850273  0.15413200  0.40623391    -0.06700
N939        N  0.61637910  0.27389532  0.24678043    -0.25400
H940        H  0.55327600  0.27495796  0.38896724     0.07100
N941        N  0.75021476  0.25273594  0.37013158    -0.46700
H942        H  0.62018597  0.13074214  0.41544889     0.07100
C943        C  0.58200633  0.16657313  0.22047872     0.42800
C944        C  0.74607574  0.17526886  0.37086172    -0.06200
Co945      Co  0.65851990  0.17007016  0.30849567     0.73800
N946        N  0.57146086  0.19678875  0.40357993    -0.46400
C947        C  0.76677343  0.30069106  0.17615854     0.43100
N948        N  0.69713344  0.14985435  0.21615285    -0.46400
Co949      Co  0.60399287  0.23708432  0.30623328     0.73900
C950        C  0.60311922  0.27960997  0.20690447    -0.06700
C951        C  0.71553020  0.29679282  0.37467092    -0.06300
N952        N  0.72596253  0.18910058  0.24008792    -0.25800
N953        N  0.62826644  0.31741734  0.37263780    -0.46600
H954        H  0.72402306  0.33803998  0.19658328     0.07100
C955        C  0.61199184  0.15262004  0.23886359    -0.06700
Cl956      Cl  0.66770432  0.23011714  0.29799519    -0.49700
C957        C  0.57739885  0.16859867  0.43100473     0.42900
H958        H  0.77148413  0.19451507  0.18299851     0.07100
N959        N  0.57629795  0.19597027  0.23745895    -0.46400
C960        C  0.51277066  0.10903925  0.15805109    -0.05900
C961        C  0.51654771  0.14356881  0.14491936    -0.17000
C962        C  0.53838830  0.16301421  0.16490458     0.11300
C963        C  0.55694709  0.14796623  0.19932325    -0.05800
C964        C  0.55234286  0.11355981  0.21326336    -0.17000
C965        C  0.53079919  0.09407188  0.19325150     0.11400
S966        S  0.54227029  0.20665875  0.14379869    -0.32000
S967        S  0.52873424  0.05004944  0.21353436    -0.32000
H968        H  0.01437187  0.04116574  0.17910475     0.29400
H969        H  0.57847791  0.20895901  0.14298199     0.29400
H970        H  0.50253502  0.15550946  0.11863399     0.19900
H971        H  0.56587413  0.10146648  0.23998195     0.20000
C972        C  0.55372007  0.15188374  0.47384690    -0.05900
C973        C  0.56922161  0.13331675  0.50838254    -0.17000
C974        C  0.55042983  0.11028288  0.04433024     0.11300
C975        C  0.51354572  0.10981029  0.04999096    -0.07000
C976        C  0.49796399  0.13090292  0.01804530    -0.17000
C977        C  0.51682630  0.15106605  0.47927067     0.11400
S978        S  0.57351229  0.08165568  0.07949706    -0.32000
S979        S  0.49429542  0.17120395  0.43490327    -0.32000
H980        H  0.51696138  0.16006389  0.39645520     0.29400
H981        H  0.54814027  0.05572960  0.08711067     0.29400
H982        H  0.59753119  0.13331580  0.50411091     0.19900
H983        H  0.96850164  0.12418099  0.01730701     0.20000
C984        C  0.75826402  0.07867681  0.10318774    -0.05900
C985        C  0.73210798  0.09956518  0.09058426    -0.17000
C986        C  0.72264564  0.12698430  0.11401196     0.11300
C987        C  0.73994310  0.13388306  0.15049050    -0.05800
C988        C  0.76635820  0.11342856  0.16266451    -0.17000
C989        C  0.77565904  0.08579174  0.13991842     0.11400
S990        S  0.68777689  0.15173757  0.09660512    -0.32000
S991        S  0.80864734  0.06062288  0.16232173    -0.32000
H992        H  0.82110879  0.04509864  0.12253178     0.29400
H993        H  0.69792767  0.18112662  0.11170792     0.29400
H994        H  0.71870119  0.09428081  0.06265780     0.19900
H995        H  0.77873499  0.11814635  0.19184043     0.20000
C996        C  0.74552598  0.12373898  0.43561953    -0.05900
C997        C  0.73956103  0.08945278  0.43910083    -0.17000
C998        C  0.75378715  0.06791611  0.96644848     0.11300
C999        C  0.77801331  0.07774707  0.99328173    -0.05800
C1000       C  0.78386160  0.11331982  0.49351598    -0.17000
C1001       C  0.76766605  0.13580088  0.46379336     0.11400
S1002       S  0.73776366  0.02569430  0.97194378    -0.32000
S1003       S  0.77229371  0.17961139  0.46694128    -0.32000
H1004       H  0.80083349  0.17753398  0.49051661     0.29400
H1005       H  0.72930066  0.02134478  0.02191712     0.29400
H1006       H  0.72245732  0.07989987  0.41812617     0.19900
H1007       H  0.79980234  0.12243002  0.51624763     0.20000
C1008       C  0.58348220  0.37630528  0.08480817    -0.05900
C1009       C  0.57999746  0.34277543  0.07967643    -0.17000
C1010       C  0.59780971  0.31887392  0.10431418     0.11300
C1011       C  0.61753648  0.32862275  0.13660841    -0.05800
C1012       C  0.62529619  0.36242292  0.13562036    -0.17000
C1013       C  0.60883121  0.38640780  0.10950954     0.11400
S1014       S  0.59439273  0.27673721  0.09314601    -0.32000
S1015       S  0.61864317  0.42930161  0.11343874    -0.32000
H1016       H  0.60346703  0.44340308  0.07541161     0.29400
H1017       H  0.62559158  0.26672507  0.10787476     0.29400
H1018       H  0.56146169  0.33481909  0.05949720     0.19900
H1019       H  0.64209414  0.37041862  0.15817606     0.20000
C1020       C  0.54925624  0.38503184  0.49101523    -0.05900
C1021       C  0.53076164  0.35528632  0.49083310    -0.17000
C1022       C  0.54470341  0.33128739  0.46209242     0.11300
C1023       C  0.57735832  0.33762249  0.42966438    -0.05800
C1024       C  0.59466958  0.36843024  0.42801044    -0.17000
C1025       C  0.58124481  0.39166862  0.45815245     0.11400
S1026       S  0.52131629  0.29182609  0.47394349    -0.32000
S1027       S  0.61952999  0.42047724  0.98037314    -0.32000
H1028       H  0.59418028  0.44363528  0.99333225     0.29400
H1029       H  0.55150201  0.27363079  0.47774929     0.29400
H1030       H  0.50727639  0.34880126  0.51741310     0.19900
H1031       H  0.61947368  0.37436271  0.40366390     0.20000
C1032       C  0.79294148  0.31879677  0.13541992    -0.05900
C1033       C  0.78533537  0.35091607  0.11584773    -0.17000
C1034       C  0.80524890  0.36718768  0.07306679     0.11300
C1035       C  0.83412747  0.35154504  0.04880292    -0.05800
C1036       C  0.84380757  0.32094106  0.07051688    -0.17000
C1037       C  0.82409608  0.30469932  0.11350901     0.11400
S1038       S  0.79084100  0.40683937  0.05017568    -0.32000
S1039       S  0.84000261  0.26590450  0.13738895    -0.32000
H1040       H  0.83613149  0.27440374  0.18373367     0.29400
H1041       H  0.79826708  0.40157876  0.00244876     0.29400
H1042       H  0.76254199  0.36309163  0.13238193     0.19900
H1043       H  0.86624183  0.30891586  0.05247968     0.20000
C1044       C  0.76351083  0.28808689  0.42816406    -0.05900
C1045       C  0.79729423  0.27540555  0.42491659    -0.17000
C1046       C  0.82332653  0.29159389  0.44134946     0.11300
C1047       C  0.81578391  0.32158347  0.45981526    -0.05800
C1048       C  0.78084152  0.33095443  0.47024306    -0.17000
C1049       C  0.75434162  0.31371617  0.45616221     0.11400
S1050       S  0.86611464  0.27403041  0.43528907    -0.32000
S1051       S  0.70987331  0.32572333  0.47498539    -0.32000
H1052       H  0.69469907  0.29435343  0.47419921     0.29400
H1053       H  0.87695810  0.29000079  0.47058153     0.29400
H1054       H  0.80429361  0.25410202  0.40673025     0.19900
H1055       H  0.77658163  0.35112571  0.99400041     0.20000
N1056       N  0.84621509  0.36567341  0.49221909    -0.03200
C1057       C  0.84602535  0.34303102  0.96449514    -0.00600
C1058       C  0.86982565  0.35367991  0.92305256    -0.23500
C1059       C  0.88857346  0.37982275  0.93209231    -0.23700
C1060       C  0.87312710  0.38795254  0.47236500    -0.00700
H1061       H  0.87192615  0.34461353  0.88909804     0.13000
H1062       H  0.90826113  0.39518715  0.90659678     0.13100
N1063       N  0.54081552  0.40280983  0.53203801    -0.03200
C1064       C  0.51554974  0.42522012  0.54319597    -0.00600
C1065       C  0.51580900  0.43432391  0.58753859    -0.23500
C1066       C  0.54202294  0.41785270  0.60444767    -0.23700
C1067       C  0.55723309  0.39916401  0.56994872    -0.00700
H1068       H  0.03430209  0.47013457  0.57857990     0.13000
H1069       H  0.54895886  0.41893238  0.63877653     0.13100
N1070       N  0.78793366  0.05757008  0.53601963    -0.03200
C1071       C  0.80626390  0.02969953  0.53150491    -0.00600
C1072       C  0.79669335  0.00720068  0.57272436    -0.23500
C1073       C  0.77333173  0.02246396  0.60426830    -0.23700
C1074       C  0.76969931  0.05386763  0.58142633    -0.00700
H1075       H  0.80914475  0.98412219  0.58143503     0.13000
H1076       H  0.76396834  0.01339070  0.64159324     0.13100
N1077       N  0.94185404  0.44017178  0.99935767    -0.36400
N1078       N  0.87678659  0.47404721  0.99750665    -0.56900
N1079       N  0.90391100  0.03766209  0.50598583    -0.36400
N1080       N  0.97127656  0.50156431  0.51410468    -0.56900
C1081       C  0.91781650  0.41485652  0.01186088     0.27200
C1082       C  0.97099976  0.43009306  0.01523917     0.27200
C1083       C  0.86989086  0.04629008  0.51366016     0.27200
C1084       C  0.92086664  0.05549730  0.53176698     0.27200
C1085       C  0.87047870  0.44503521  0.98218512     0.35800
C1086       C  0.85658534  0.49997725  0.47661997     0.35800
C1087       C  0.00023194  0.48454138  0.50021306     0.35800
C1088       C  0.97636045  0.02595401  0.51991148     0.35800
C1089       C  0.93185462  0.38797597  0.03555104    -0.21600
C1090       C  0.96529324  0.39795395  0.03876330    -0.21600
C1091       C  0.86625664  0.07255988  0.54002149    -0.21600
C1092       C  0.89823116  0.07808002  0.55193170    -0.21600
C1093       C  0.84565224  0.44913240  0.95344067    -0.22700
C1094       C  0.83572042  0.48151210  0.95257328    -0.22700
C1095       C  0.52285226  0.49513879  0.50553535    -0.22700
C1096       C  0.51737553  0.03780722  0.50911240    -0.22700
C1097       C  0.88563505  0.41477709  0.99653378    -0.18000
C1098       C  0.00184412  0.45013612  0.00863780    -0.18000
C1099       C  0.95549058  0.05063695  0.53991450    -0.18000
C1100       C  0.84187572  0.02852109  0.50175497    -0.18000
H1101       H  0.91914417  0.36396655  0.04945250     0.14900
H1102       H  0.98275251  0.38361684  0.05761236     0.14900
H1103       H  0.84288448  0.08586935  0.55102950     0.14900
H1104       H  0.90391177  0.09613066  0.57398384     0.14900
H1105       H  0.83498594  0.43055402  0.93613460     0.13100
H1106       H  0.81509759  0.49257121  0.93600775     0.13100
H1107       H  0.54922187  0.48674078  0.50425890     0.13100
H1108       H  0.53339427  0.05945291  0.50915244     0.13100
H1109       H  0.93984842  0.46209317  0.97689274     0.26400
H1110       H  0.91444685  0.01957285  0.48558256     0.26400
N1111       N  0.99139123  0.08276169  0.58680582    -0.03200
C1112       C  0.98951103  0.08417860  0.63409570    -0.00600
C1113       C  0.96139036  0.06476757  0.66061230    -0.23500
C1114       C  0.94565074  0.05080376  0.62883081    -0.23700
C1115       C  0.96429783  0.06228349  0.58362574    -0.00700
H1116       H  0.95320468  0.06113913  0.69898529     0.13000
H1117       H  0.92302106  0.03387606  0.63771243     0.13100
C1118       C  0.73269860  0.14936674  0.89843622     0.42700
N1119       N  0.69835943  0.16874603  0.85116210     0.01600
C1120       C  0.73202169  0.31804261  0.69799162    -0.06300
H1121       H  0.70351848  0.32272550  0.88496458     0.07100
C1122       C  0.58180413  0.28773749  0.88546315    -0.06600
Co1123     Co  0.73200600  0.22809055  0.78505566     0.74200
N1124       N  0.71222389  0.28617074  0.83714689    -0.25800
Co1125     Co  0.67733749  0.29461695  0.79029762     0.74100
C1126       C  0.59610371  0.31841972  0.89755227     0.42800
N1127       N  0.59805846  0.20287628  0.86773245     0.01200
N1128       N  0.63476009  0.29756965  0.84588407     0.01300
N1129       N  0.76659640  0.27403042  0.69346356    -0.46700
H1130       H  0.77530076  0.18940717  0.86322155     0.07100
N1131       N  0.73322258  0.26090152  0.83415361     0.01600
N1132       N  0.64317912  0.29807098  0.74324312     0.01300
C1133       C  0.62497173  0.30855348  0.67751968     0.42900
N1134       N  0.62027965  0.17842833  0.86769175    -0.25300
C1135       C  0.74498357  0.18857523  0.69684043    -0.06200
N1136       N  0.70154335  0.14415516  0.88526165    -0.46400
N1137       N  0.64936035  0.31694170  0.70147547    -0.46600
C1138       C  0.72481591  0.16314428  0.68088412     0.42700
N1139       N  0.73966161  0.26818658  0.72994293     0.01600
N1140       N  0.62134446  0.17833899  0.76679015    -0.25300
N1141       N  0.72597714  0.18916426  0.84031700    -0.25800
N1142       N  0.60016650  0.20338792  0.76577614     0.01200
H1143       H  0.62229007  0.13168754  0.73923685     0.07100
H1144       H  0.57925547  0.26970490  0.70348193     0.07200
N1145       N  0.71922142  0.29365387  0.73339491    -0.25800
N1146       N  0.60722013  0.27719014  0.85276544    -0.25400
N1147       N  0.69783232  0.17387907  0.74869149     0.01600
C1148       C  0.74208161  0.28059657  0.89655556     0.43000
C1149       C  0.61070139  0.15714371  0.90754937    -0.06700
N1150       N  0.61566247  0.27751802  0.74907283    -0.25400
H1151       H  0.55630928  0.27558655  0.89748570     0.07100
N1152       N  0.75119269  0.25677111  0.86875224    -0.46700
H1153       H  0.62254334  0.13364912  0.91558339     0.07100
C1154       C  0.58028838  0.16914949  0.72502673     0.42800
C1155       C  0.74904610  0.17895502  0.86771252    -0.06200
Co1156     Co  0.65946228  0.17422578  0.80908732     0.73800
N1157       N  0.57278636  0.19909580  0.90630635    -0.46400
C1158       C  0.76376469  0.30520061  0.67128634     0.43100
N1159       N  0.69634101  0.15512367  0.71526102    -0.46400
Co1160     Co  0.60429254  0.24051345  0.80889621     0.73900
C1161       C  0.60196085  0.28277229  0.70947879    -0.06700
C1162       C  0.71654337  0.30073565  0.87478781    -0.06300
N1163       N  0.72572278  0.19419492  0.73865258    -0.25800
N1164       N  0.62919046  0.32235938  0.87160708    -0.46600
H1165       H  0.72137030  0.34244214  0.69349442     0.07100
C1166       C  0.61102171  0.15569668  0.74211274    -0.06700
Cl1167     Cl  0.66819021  0.23433179  0.79846222    -0.49700
C1168       C  0.57922785  0.17069371  0.93299422     0.42900
H1169       H  0.77004551  0.20048244  0.67990473     0.07100
N1170       N  0.57487900  0.19870170  0.74179508    -0.46400
C1171       C  0.51141245  0.11148233  0.66128067    -0.05900
C1172       C  0.51409055  0.14616220  0.64983513    -0.17000
C1173       C  0.53555945  0.16561136  0.67048255     0.11300
C1174       C  0.55525380  0.15044420  0.70351897    -0.05800
C1175       C  0.55186141  0.11579522  0.71559350    -0.17000
C1176       C  0.53037311  0.09632689  0.69531552     0.11400
S1177       S  0.53751168  0.20950768  0.65192729    -0.32000
S1178       S  0.52952200  0.05211247  0.71389219    -0.32000
H1179       H  0.02230954  0.03376905  0.66924869     0.29400
H1180       H  0.57387342  0.21228311  0.64943364     0.29400
H1181       H  0.49940265  0.15823796  0.62445047     0.19900
H1182       H  0.56620966  0.10349788  0.74120101     0.20000
C1183       C  0.55529621  0.15229248  0.97449059    -0.05900
C1184       C  0.57067098  0.13198428  0.00757742    -0.17000
C1185       C  0.54906863  0.11292048  0.54673604     0.11300
C1186       C  0.51218142  0.11236014  0.55259695    -0.07000
C1187       C  0.49649832  0.13198460  0.51917842    -0.17000
C1188       C  0.51836624  0.15166010  0.97990424     0.11400
S1189       S  0.57229630  0.08522828  0.58289147    -0.32000
S1190       S  0.49578451  0.17470578  0.93792341    -0.32000
H1191       H  0.51753858  0.16458783  0.89787195     0.29400
H1192       H  0.54758813  0.05878794  0.58993875     0.29400
H1193       H  0.59895929  0.13193977  0.00358488     0.19900
H1194       H  0.97064614  0.12540088  0.52141799     0.20000
C1195       C  0.75882005  0.08228688  0.60676829    -0.05900
C1196       C  0.73123813  0.10125787  0.59419827    -0.17000
C1197       C  0.72110184  0.12942104  0.61553294     0.11300
C1198       C  0.73893637  0.13882544  0.65010498    -0.05800
C1199       C  0.76655348  0.12014555  0.66243064    -0.17000
C1200       C  0.77670561  0.09196377  0.64154810     0.11400
S1201       S  0.68485345  0.15193902  0.59796597    -0.32000
S1202       S  0.81150651  0.06947469  0.66366134    -0.32000
H1203       H  0.82455276  0.05389465  0.62412664     0.29400
H1204       H  0.69456592  0.18265493  0.60970904     0.29400
H1205       H  0.71745468  0.09402909  0.56770336     0.19900
H1206       H  0.77934056  0.12673196  0.69029466     0.20000
C1207       C  0.74941152  0.12540916  0.93078522    -0.05900
C1208       C  0.74018124  0.09156390  0.93546942    -0.17000
C1209       C  0.75429391  0.06721744  0.47056240     0.11300
C1210       C  0.77719868  0.07908583  0.49779441    -0.05800
C1211       C  0.78797800  0.11138779  0.98794254    -0.17000
C1212       C  0.77394571  0.13533742  0.95740977     0.11400
S1213       S  0.74049726  0.02426027  0.47700999    -0.32000
S1214       S  0.78537793  0.17852999  0.95673140    -0.32000
H1215       H  0.81037203  0.17373807  0.98612451     0.29400
H1216       H  0.73379346  0.01971690  0.52701936     0.29400
H1217       H  0.72155071  0.08343190  0.91552014     0.19900
H1218       H  0.80540619  0.11902854  0.00980427     0.20000
C1219       C  0.58522549  0.37629689  0.57843646    -0.05900
C1220       C  0.57926850  0.34226517  0.57891878    -0.17000
C1221       C  0.59651435  0.31907739  0.60550948     0.11300
C1222       C  0.61716182  0.33007028  0.63580994    -0.05800
C1223       C  0.62739011  0.36374156  0.62942396    -0.17000
C1224       C  0.61239023  0.38684685  0.59984229     0.11400
S1225       S  0.59185255  0.27628643  0.59837215    -0.32000
S1226       S  0.62622459  0.42981761  0.59499181    -0.32000
H1227       H  0.61289376  0.44056773  0.55381665     0.29400
H1228       H  0.62307615  0.26655892  0.61328926     0.29400
H1229       H  0.55930352  0.33337742  0.56201420     0.19900
H1230       H  0.64528401  0.37255571  0.64990565     0.20000
C1231       C  0.55293160  0.38871184  0.99329739    -0.05900
C1232       C  0.53029686  0.36682112  0.97896041    -0.17000
C1233       C  0.54269400  0.34483315  0.94613021     0.11300
C1234       C  0.57933363  0.34323982  0.92855303    -0.05800
C1235       C  0.60150864  0.36704936  0.94026260    -0.17000
C1236       C  0.58870969  0.39003924  0.97094777     0.11400
S1237       S  0.51066796  0.31996778  0.92743355    -0.32000
S1238       S  0.60684857  0.42910239  0.45471635    -0.32000
H1239       H  0.57732691  0.44829043  0.46458434     0.29400
H1240       H  0.48134725  0.33851485  0.94306021     0.29400
H1241       H  0.50297815  0.36556776  0.99534225     0.19900
H1242       H  0.62938151  0.36772715  0.92571293     0.20000
C1243       C  0.78869372  0.32303572  0.62863896    -0.05900
C1244       C  0.77956178  0.35407757  0.60694605    -0.17000
C1245       C  0.79963735  0.37038367  0.56407202     0.11300
C1246       C  0.83017732  0.35584369  0.54180165    -0.05800
C1247       C  0.84054090  0.32605273  0.56484941    -0.17000
C1248       C  0.82064577  0.30975340  0.60765642     0.11400
S1249       S  0.78367805  0.40872596  0.53871896    -0.32000
S1250       S  0.83748214  0.27175348  0.63249245    -0.32000
H1251       H  0.83416242  0.28143609  0.67808930     0.29400
H1252       H  0.79585578  0.40452318  0.49112528     0.29400
H1253       H  0.75568929  0.36533487  0.62214616     0.19900
H1254       H  0.86381534  0.31460798  0.54793199     0.20000
C1255       C  0.76419920  0.28980903  0.92959398    -0.05900
C1256       C  0.79723129  0.27555157  0.92711171    -0.17000
C1257       C  0.82349197  0.28965834  0.94561484     0.11300
C1258       C  0.81700278  0.31906409  0.96598387    -0.05800
C1259       C  0.78245891  0.32967530  0.97605094    -0.17000
C1260       C  0.75568659  0.31471005  0.95917869     0.11400
S1261       S  0.86555559  0.27063186  0.93886592    -0.32000
S1262       S  0.71181541  0.32861113  0.97655196    -0.32000
H1263       H  0.69535000  0.29812690  0.97424413     0.29400
H1264       H  0.87708420  0.28516512  0.97494289     0.29400
H1265       H  0.80369133  0.25472374  0.90771235     0.19900
H1266       H  0.77422938  0.35295398  0.48653503     0.20000
N1267       N  0.83983860  0.86106892  0.98963847    -0.03200
C1268       C  0.83038513  0.84780295  0.45692792    -0.00600
C1269       C  0.85359217  0.85973051  0.41553364    -0.23500
C1270       C  0.87262237  0.88503242  0.42626026    -0.23700
C1271       C  0.86552849  0.88472138  0.97067346    -0.00700
H1272       H  0.85571641  0.85147195  0.38103347     0.13000
H1273       H  0.89249632  0.90077833  0.40166644     0.13100
N1274       N  0.54522339  0.90425726  0.02205845    -0.03200
C1275       C  0.53135411  0.93474997  0.02640912    -0.00600
C1276       C  0.54378678  0.94832442  0.06192487    -0.23500
C1277       C  0.56558114  0.92618168  0.07975192    -0.23700
C1278       C  0.56560367  0.89942120  0.05538516    -0.00700
H1279       H  0.99818136  0.94894048  0.11262991     0.13000
H1280       H  0.57688830  0.92770577  0.11088375     0.13100
N1281       N  0.79186093  0.55569798  0.02678898    -0.03200
C1282       C  0.80960446  0.52737498  0.02209714    -0.00600
C1283       C  0.79714031  0.50369054  0.06119672    -0.23500
C1284       C  0.77307287  0.51852545  0.09221485    -0.23700
C1285       C  0.77166646  0.55077119  0.07110313    -0.00700
H1286       H  0.80848223  0.48000702  0.06984603     0.13000
H1287       H  0.76177662  0.50840090  0.12861248     0.13100
N1288       N  0.92919539  0.93623149  0.50111949    -0.36400
N1289       N  0.86740739  0.97508775  0.49844090    -0.56900
N1290       N  0.90767090  0.53863192  0.00649767    -0.36400
N1291       N  0.96346728  0.99543358  0.02134898    -0.56900
C1292       C  0.90283048  0.91301788  0.51206702     0.27200
C1293       C  0.95576762  0.92378760  0.52115232     0.27200
C1294       C  0.87300789  0.54491614  0.01325924     0.27200
C1295       C  0.92248594  0.55694883  0.03401615     0.27200
C1296       C  0.85865314  0.94739092  0.48183206     0.35800
C1297       C  0.84888623  0.99588188  0.98022972     0.35800
C1298       C  0.99188815  0.97644033  0.01338948     0.35800
C1299       C  0.98010523  0.53267605  0.01840662     0.35800
C1300       C  0.91282406  0.88503902  0.53825149    -0.21600
C1301       C  0.94602625  0.89221430  0.54526645    -0.21600
C1302       C  0.86667353  0.57016113  0.04141647    -0.21600
C1303       C  0.89764234  0.57723437  0.05524715    -0.21600
C1304       C  0.83366781  0.95412573  0.45380690    -0.22700
C1305       C  0.82641836  0.98702018  0.45433452    -0.22700
C1306       C  0.52885255  0.00625266  0.99293917    -0.22700
C1307       C  0.51422407  0.52246848  0.02242743    -0.22700
C1308       C  0.87160828  0.91594892  0.49462724    -0.18000
C1309       C  0.98802173  0.94084549  0.51846735    -0.18000
C1310       C  0.95768271  0.55519774  0.04090288    -0.18000
C1311       C  0.84709870  0.52604577  0.99819613    -0.18000
H1312       H  0.89746798  0.86229246  0.55173473     0.14900
H1313       H  0.96090855  0.87623218  0.56647973     0.14900
H1314       H  0.84229271  0.58197557  0.05222461     0.14900
H1315       H  0.90136756  0.59513422  0.07852814     0.14900
H1316       H  0.82127319  0.93703674  0.43593132     0.13100
H1317       H  0.80686881  0.00021807  0.43798300     0.13100
H1318       H  0.55612308  0.00012282  0.98367005     0.13100
H1319       H  0.53144500  0.54134409  0.02894265     0.13100
H1320       H  0.93004272  0.95830938  0.47786918     0.26400
H1321       H  0.92025002  0.52205957  0.98487917     0.26400
N1322       N  0.99274399  0.58825484  0.08777680    -0.03200
C1323       C  0.99262544  0.58862127  0.13498581    -0.00600
C1324       C  0.96607765  0.56741106  0.16192022    -0.23500
C1325       C  0.94973271  0.55356993  0.13040264    -0.23700
C1326       C  0.96641231  0.56679521  0.08486272    -0.00700
H1327       H  0.95927082  0.56249040  0.20038732     0.13000
H1328       H  0.92826074  0.53532934  0.13971555     0.13100
C1329       C  0.73226688  0.64504960  0.39605140     0.42700
N1330       N  0.69720394  0.66196450  0.34872186     0.01600
C1331       C  0.72264013  0.80938764  0.19023146    -0.06300
H1332       H  0.69409659  0.81749536  0.37673333     0.07100
C1333       C  0.57683847  0.77835135  0.38621241    -0.06600
Co1334     Co  0.72741771  0.72191489  0.28092022     0.74200
N1335       N  0.70586512  0.78092042  0.32953629    -0.25800
Co1336     Co  0.66958226  0.78657327  0.28479755     0.74100
C1337       C  0.59117354  0.80953959  0.39666279     0.42800
N1338       N  0.59651746  0.69304755  0.36900595     0.01200
N1339       N  0.62846101  0.78932295  0.34275590     0.01300
N1340       N  0.75966341  0.76714889  0.18867896    -0.46700
H1341       H  0.77276282  0.68695811  0.36096100     0.07100
N1342       N  0.72750140  0.75609098  0.32810529     0.01600
N1343       N  0.63281472  0.78737601  0.24098328     0.01300
C1344       C  0.60633136  0.79727746  0.18246111     0.42900
N1345       N  0.61906021  0.66887893  0.36798654    -0.25300
C1346       C  0.74157770  0.68163435  0.19383241    -0.06200
N1347       N  0.70145894  0.63807838  0.38321013    -0.46400
N1348       N  0.63387493  0.80683320  0.20023078    -0.46600
C1349       C  0.72235329  0.65524389  0.17860871     0.42700
N1350       N  0.73252167  0.76090285  0.22468210     0.01600
N1351       N  0.61858880  0.66831541  0.26758902    -0.25300
N1352       N  0.72377399  0.68362972  0.33727389    -0.25800
N1353       N  0.59628223  0.69248087  0.26814012     0.01200
H1354       H  0.62229666  0.62331458  0.23554403     0.07100
H1355       H  0.56534500  0.75500850  0.21361106     0.07200
N1356       N  0.71056918  0.78534073  0.22653273    -0.25800
N1357       N  0.60176486  0.76771594  0.35278069    -0.25400
N1358       N  0.69533094  0.66549186  0.24675927     0.01600
C1359       C  0.73343468  0.77673927  0.39085388     0.43000
C1360       C  0.61008120  0.64733565  0.40776254    -0.06700
N1361       N  0.60615198  0.76560546  0.25098334    -0.25400
H1362       H  0.55058075  0.76757531  0.39756201     0.07100
N1363       N  0.74436159  0.75285880  0.36387783    -0.46700
H1364       H  0.62200647  0.62378195  0.41506018     0.07100
C1365       C  0.57915557  0.65995116  0.22345526     0.42800
C1366       C  0.74727088  0.67497083  0.36478200    -0.06200
Co1367     Co  0.65749608  0.66542932  0.30820491     0.73800
N1368       N  0.57176424  0.68896194  0.40791748    -0.46400
C1369       C  0.75562273  0.79748574  0.16504286     0.43100
N1370       N  0.69447918  0.64620038  0.21370182    -0.46400
Co1371     Co  0.59933838  0.72978582  0.31058575     0.73900
C1372       C  0.58807179  0.76975327  0.21579074    -0.06700
C1373       C  0.70847724  0.79605489  0.36716850    -0.06300
N1374       N  0.72235571  0.68683206  0.23587052    -0.25800
N1375       N  0.62306484  0.81460439  0.36762825    -0.46600
H1376       H  0.71105449  0.83328207  0.18473808     0.07100
C1377       C  0.60983253  0.64656593  0.24055560    -0.06700
Cl1378     Cl  0.66342292  0.72592506  0.29622996    -0.49700
C1379       C  0.57863942  0.66057191  0.43390003     0.42900
H1380       H  0.76591633  0.69460753  0.17612845     0.07100
N1381       N  0.57191523  0.68824560  0.24269879    -0.46400
C1382       C  0.50989682  0.60209214  0.16294026    -0.05900
C1383       C  0.51476857  0.63637456  0.14765563    -0.17000
C1384       C  0.53716752  0.65596619  0.16644544     0.11300
C1385       C  0.55455929  0.64124007  0.20234307    -0.05800
C1386       C  0.54905743  0.60716038  0.21820621    -0.17000
C1387       C  0.52735401  0.58747126  0.19893286     0.11400
S1388       S  0.54348085  0.69914900  0.14167467    -0.32000
S1389       S  0.52456135  0.54367388  0.22107472    -0.32000
H1390       H  0.03001158  0.54044238  0.16885438     0.29400
H1391       H  0.57881855  0.70189081  0.14569407     0.29400
H1392       H  0.50140192  0.64792803  0.12038301     0.19900
H1393       H  0.56209545  0.59551962  0.24578878     0.20000
C1394       C  0.55406481  0.64178803  0.47388917    -0.05900
C1395       C  0.56837411  0.62119176  0.50773642    -0.17000
C1396       C  0.54883844  0.60191722  0.04908290     0.11300
C1397       C  0.51187585  0.60124104  0.05499615    -0.07000
C1398       C  0.49608621  0.62116144  0.02208401    -0.17000
C1399       C  0.51725145  0.64241600  0.47812589     0.11400
S1400       S  0.57254507  0.57587191  0.08675561    -0.32000
S1401       S  0.49591923  0.66519724  0.43437577    -0.32000
H1402       H  0.51820036  0.65427450  0.39539370     0.29400
H1403       H  0.54680891  0.55028118  0.10056077     0.29400
H1404       H  0.59657746  0.62013563  0.50432341     0.19900
H1405       H  0.97106011  0.63122893  0.02324092     0.20000
C1406       C  0.76004944  0.57817085  0.09818734    -0.05900
C1407       C  0.73283998  0.59758947  0.08543917    -0.17000
C1408       C  0.72123876  0.62431173  0.10936128     0.11300
C1409       C  0.73733721  0.63190541  0.14658971    -0.05800
C1410       C  0.76472312  0.61289599  0.15895790    -0.17000
C1411       C  0.77620022  0.58598568  0.13571983     0.11400
S1412       S  0.68546323  0.64736129  0.09141031    -0.32000
S1413       S  0.81034348  0.56277455  0.15855766    -0.32000
H1414       H  0.82250025  0.54518028  0.12086636     0.29400
H1415       H  0.69404597  0.67723392  0.10661184     0.29400
H1416       H  0.72030487  0.59169593  0.05699599     0.19900
H1417       H  0.77630526  0.61822486  0.18855143     0.20000
C1418       C  0.74968884  0.62293847  0.42969028    -0.05900
C1419       C  0.74411819  0.58847776  0.43373431    -0.17000
C1420       C  0.75697389  0.56539692  0.96248651     0.11300
C1421       C  0.78096845  0.57709698  0.98831535    -0.05800
C1422       C  0.78848073  0.61303663  0.48737915    -0.17000
C1423       C  0.77196403  0.63520799  0.45760888     0.11400
S1424       S  0.74323627  0.52242277  0.96959279    -0.32000
S1425       S  0.77799095  0.67874211  0.46062290    -0.32000
H1426       H  0.74313988  0.68658292  0.45832385     0.29400
H1427       H  0.73154228  0.52029831  0.01908169     0.29400
H1428       H  0.72695430  0.57854783  0.41316699     0.19900
H1429       H  0.80457760  0.62273821  0.50949060     0.20000
C1430       C  0.57482939  0.86692441  0.07682401    -0.05900
C1431       C  0.54914488  0.85019831  0.11318474    -0.17000
C1432       C  0.55815088  0.82620676  0.14737361     0.11300
C1433       C  0.59363755  0.81767821  0.14381974    -0.05800
C1434       C  0.61877728  0.83229351  0.10465548    -0.17000
C1435       C  0.60973654  0.85710694  0.07127534     0.11400
S1436       S  0.52403191  0.81200336  0.19798134    -0.32000
S1437       S  0.64417253  0.87751621  0.02535533    -0.32000
H1438       H  0.62241681  0.89004488  0.99406324     0.29400
H1439       H  0.54353971  0.82020411  0.23139267     0.29400
H1440       H  0.52242376  0.85852292  0.11795066     0.19900
H1441       H  0.64599667  0.82569640  0.10158096     0.20000
C1442       C  0.54695971  0.88483315  0.48351898    -0.05900
C1443       C  0.53424177  0.85164772  0.49514631    -0.17000
C1444       C  0.54741060  0.82676567  0.46768995     0.11300
C1445       C  0.57354648  0.83487151  0.42594926    -0.05800
C1446       C  0.58439214  0.86848270  0.41250172    -0.17000
C1447       C  0.57127947  0.89320242  0.44027603     0.11400
S1448       S  0.53268074  0.78479364  0.49164695    -0.32000
S1449       S  0.58397067  0.93229223  0.91879832    -0.32000
H1450       H  0.55103603  0.94645258  0.92833295     0.29400
H1451       H  0.56651556  0.77205742  0.48410871     0.29400
H1452       H  0.51642745  0.84420402  0.52861269     0.19900
H1453       H  0.60405437  0.87559839  0.38054868     0.20000
C1454       C  0.78147854  0.81591126  0.12401553    -0.05900
C1455       C  0.77384566  0.84812979  0.10479852    -0.17000
C1456       C  0.79446773  0.86505598  0.06287384     0.11300
C1457       C  0.82382471  0.84985089  0.03885060    -0.05800
C1458       C  0.83296686  0.81881604  0.05967325    -0.17000
C1459       C  0.81277677  0.80203489  0.10191342     0.11400
S1460       S  0.78048240  0.90499064  0.04038701    -0.32000
S1461       S  0.82833596  0.76273614  0.12445129    -0.32000
H1462       H  0.82735800  0.77164698  0.17011889     0.29400
H1463       H  0.78753012  0.89968373  0.99257253     0.29400
H1464       H  0.75076398  0.85998073  0.12123266     0.19900
H1465       H  0.85549155  0.80694855  0.04153308     0.20000
C1466       C  0.75357146  0.78734444  0.42491996    -0.05900
C1467       C  0.78737988  0.77518778  0.42370409    -0.17000
C1468       C  0.81232500  0.79215989  0.44093263     0.11300
C1469       C  0.80334463  0.82203193  0.45893073    -0.05800
C1470       C  0.76807668  0.83053930  0.46842769    -0.17000
C1471       C  0.74273613  0.81267187  0.45286526     0.11400
S1472       S  0.85583565  0.77610655  0.43501940    -0.32000
S1473       S  0.69763991  0.82345461  0.46942668    -0.32000
H1474       H  0.68369897  0.79193534  0.46662273     0.29400
H1475       H  0.86769919  0.79494318  0.46651257     0.29400
H1476       H  0.79551974  0.75407615  0.40561886     0.19900
H1477       H  0.76728650  0.84647241  0.98717975     0.20000
N1478       N  0.83374440  0.86497774  0.49287594    -0.03200
C1479       C  0.83705691  0.84388053  0.95337295    -0.00600
C1480       C  0.86008445  0.85663991  0.91213746    -0.23500
C1481       C  0.87825657  0.88239088  0.92320223    -0.23700
C1482       C  0.86020955  0.88771634  0.47372007    -0.00700
H1483       H  0.86233403  0.84892458  0.87727504     0.13000
H1484       H  0.89756319  0.89880683  0.89870699     0.13100
N1485       N  0.54556742  0.90519309  0.52158620    -0.03200
C1486       C  0.53196301  0.93567833  0.52733136    -0.00600
C1487       C  0.54437668  0.94812693  0.56372306    -0.23500
C1488       C  0.56595549  0.92537319  0.58066808    -0.23700
C1489       C  0.56588588  0.89936369  0.55488230    -0.00700
H1490       H  0.99267332  0.95081478  0.61072487     0.13000
H1491       H  0.57733840  0.92603632  0.61193479     0.13100
N1492       N  0.79393167  0.55721252  0.52976500    -0.03200
C1493       C  0.81285143  0.52959351  0.52525127    -0.00600
C1494       C  0.80445325  0.50750655  0.56715437    -0.23500
C1495       C  0.78146752  0.52274622  0.59906383    -0.23700
C1496       C  0.77675560  0.55364729  0.57568808    -0.00700
H1497       H  0.81773425  0.48493755  0.57601218     0.13000
H1498       H  0.77282562  0.51401712  0.63664290     0.13100
N1499       N  0.93202969  0.93539123  0.00178111    -0.36400
N1500       N  0.86945061  0.97230924  0.99664019    -0.56900
N1501       N  0.91005634  0.54072600  0.50304515    -0.36400
N1502       N  0.96342972  0.99571417  0.51601704    -0.56900
C1503       C  0.90672249  0.91117628  0.01042261     0.27200
C1504       C  0.95858980  0.92338101  0.02217169     0.27200
C1505       C  0.87566498  0.54796482  0.50985318     0.27200
C1506       C  0.92537501  0.55881750  0.53032990     0.27200
C1507       C  0.86219077  0.94452005  0.97903365     0.35800
C1508       C  0.84796469  0.99937597  0.48127652     0.35800
C1509       C  0.99106756  0.97589131  0.50777579     0.35800
C1510       C  0.98223525  0.53270884  0.51673177     0.35800
C1511       C  0.91737342  0.88314565  0.03577770    -0.21600
C1512       C  0.94979706  0.89122963  0.04458601    -0.21600
C1513       C  0.87020192  0.57365307  0.53722822    -0.21600
C1514       C  0.90131849  0.58003726  0.55090166    -0.21600
C1515       C  0.83722512  0.95058108  0.95081246    -0.22700
C1516       C  0.82813422  0.98296482  0.95268530    -0.22700
C1517       C  0.52958581  0.00783495  0.49708890    -0.22700
C1518       C  0.51218801  0.52618250  0.51374927    -0.22700
C1519       C  0.87594901  0.91338422  0.99177901    -0.18000
C1520       C  0.99013918  0.94116878  0.02091976    -0.18000
C1521       C  0.96012602  0.55578177  0.53836329    -0.18000
C1522       C  0.84891355  0.52927295  0.49653029    -0.18000
H1523       H  0.90292150  0.85973607  0.04756996     0.14900
H1524       H  0.96475051  0.87545780  0.06595538     0.14900
H1525       H  0.84620725  0.58615160  0.54754390     0.14900
H1526       H  0.90560698  0.59795728  0.57389303     0.14900
H1527       H  0.82575156  0.93322840  0.93235993     0.13100
H1528       H  0.80768223  0.99534784  0.93719148     0.13100
H1529       H  0.55687426  0.00170674  0.48810964     0.13100
H1530       H  0.52917854  0.54624397  0.51691622     0.13100
H1531       H  0.93249367  0.95786595  0.97951210     0.26400
H1532       H  0.92186546  0.52351699  0.48211878     0.26400
N1533       N  0.99399480  0.58899667  0.58619944    -0.03200
C1534       C  0.99288323  0.58926763  0.63365403    -0.00600
C1535       C  0.96635157  0.56780553  0.65992869    -0.23500
C1536       C  0.95097050  0.55372983  0.62780230    -0.23700
C1537       C  0.96828552  0.56709419  0.58265571    -0.00700
H1538       H  0.95912398  0.56274360  0.69835860     0.13000
H1539       H  0.92965343  0.53532683  0.63642355     0.13100
C1540       C  0.73053451  0.64424806  0.89362446     0.42700
N1541       N  0.69466621  0.66131170  0.84744051     0.01600
C1542       C  0.71804604  0.81053411  0.69319277    -0.06300
H1543       H  0.69437832  0.81592221  0.88058663     0.07100
C1544       C  0.57404471  0.77594540  0.88951519    -0.06600
Co1545     Co  0.72409149  0.72192120  0.78051780     0.74200
N1546       N  0.70332694  0.77957431  0.83226238    -0.25800
Co1547     Co  0.66630036  0.78601430  0.78794108     0.74100
C1548       C  0.58871073  0.80662650  0.90091201     0.42800
N1549       N  0.59329636  0.69150956  0.86924016     0.01200
N1550       N  0.62556746  0.78735286  0.84605672     0.01300
N1551       N  0.75507773  0.76833357  0.68897980    -0.46700
H1552       H  0.77078109  0.68616420  0.85766201     0.07100
N1553       N  0.72512008  0.75495118  0.82860287     0.01600
N1554       N  0.62939460  0.78772961  0.74408172     0.01300
C1555       C  0.60405516  0.79787891  0.68429241     0.42900
N1556       N  0.61611664  0.66756238  0.86792962    -0.25300
C1557       C  0.73669494  0.68470449  0.69142042    -0.06200
N1558       N  0.69940369  0.63733223  0.88153569    -0.46400
N1559       N  0.63090936  0.80748294  0.70343448    -0.46600
C1560       C  0.71810328  0.65819588  0.67565642     0.42700
N1561       N  0.72853954  0.76164874  0.72565946     0.01600
N1562       N  0.61522364  0.66763887  0.76742499    -0.25300
N1563       N  0.72121715  0.68298027  0.83558753    -0.25800
N1564       N  0.59302632  0.69190469  0.76794639     0.01200
H1565       H  0.61876865  0.62253633  0.73549766     0.07100
H1566       H  0.56454662  0.75394459  0.71264023     0.07200
N1567       N  0.70667412  0.78605054  0.72907544    -0.25800
N1568       N  0.59871922  0.76592167  0.85519060    -0.25400
N1569       N  0.69189946  0.66615087  0.74540446     0.01600
C1570       C  0.73477727  0.77520635  0.88994185     0.43000
C1571       C  0.60772925  0.64619666  0.90801488    -0.06700
N1572       N  0.60311010  0.76558431  0.75277231    -0.25400
H1573       H  0.54777826  0.76518630  0.90111604     0.07100
N1574       N  0.74406778  0.75156667  0.86206091    -0.46700
H1575       H  0.62024590  0.62300979  0.91563985     0.07100
C1576       C  0.57569840  0.65923675  0.72334292     0.42800
C1577       C  0.74520719  0.67419694  0.86222745    -0.06200
Co1578     Co  0.65447285  0.66484800  0.80758091     0.73800
N1579       N  0.56895846  0.68748786  0.90863583    -0.46400
C1580       C  0.75053835  0.79889805  0.66647020     0.43100
N1581       N  0.69085803  0.64786162  0.71122891    -0.46400
Co1582     Co  0.59612911  0.72884122  0.81151845     0.73900
C1583       C  0.58583175  0.76982911  0.71672180    -0.06700
C1584       C  0.70802851  0.79444200  0.86950276    -0.06300
N1585       N  0.71833953  0.68810647  0.73458875    -0.25800
N1586       N  0.62047327  0.81203669  0.87194087    -0.46600
H1587       H  0.70626638  0.83441502  0.68879345     0.07100
C1588       C  0.60628915  0.64577246  0.74059412    -0.06700
Cl1589     Cl  0.66017231  0.72539238  0.79706094    -0.49700
C1590       C  0.57643241  0.65936879  0.93468389     0.42900
H1591       H  0.76053323  0.69850078  0.67363947     0.07100
N1592       N  0.56861369  0.68764827  0.74250076    -0.46400
C1593       C  0.50721539  0.60338842  0.65797092    -0.05900
C1594       C  0.51346926  0.63760838  0.64294782    -0.17000
C1595       C  0.53557051  0.65648655  0.66339051     0.11300
C1596       C  0.55166925  0.64110298  0.70027557    -0.05800
C1597       C  0.54524677  0.60699787  0.71533342    -0.17000
C1598       C  0.52343092  0.58809685  0.69491314     0.11400
S1599       S  0.54298387  0.69979427  0.63984834    -0.32000
S1600       S  0.51831870  0.54439354  0.71742685    -0.32000
H1601       H  0.02955832  0.54012726  0.66234753     0.29400
H1602       H  0.57820017  0.70148109  0.64482346     0.29400
H1603       H  0.50112203  0.64975395  0.61497218     0.19900
H1604       H  0.55734796  0.59479918  0.74353788     0.20000
C1605       C  0.55311204  0.64126730  0.97664885    -0.05900
C1606       C  0.56884492  0.62230949  0.01053807    -0.17000
C1607       C  0.54698640  0.60104951  0.54519856     0.11300
C1608       C  0.51021099  0.60220847  0.54995598    -0.07000
C1609       C  0.49582832  0.62313359  0.51660993    -0.17000
C1610       C  0.51617812  0.64062250  0.98254939     0.11400
S1611       S  0.56841313  0.57244782  0.58277020    -0.32000
S1612       S  0.49306795  0.66188226  0.93965168    -0.32000
H1613       H  0.51502901  0.65117543  0.90023593     0.29400
H1614       H  0.54125756  0.54808235  0.59421206     0.29400
H1615       H  0.59716902  0.62257463  0.00613905     0.19900
H1616       H  0.97054531  0.62902674  0.51979297     0.20000
C1617       C  0.76299377  0.58151999  0.60011320    -0.05900
C1618       C  0.73159669  0.59494662  0.59063989    -0.17000
C1619       C  0.71713841  0.62149460  0.61276498     0.11300
C1620       C  0.73477227  0.63514267  0.64442359    -0.05800
C1621       C  0.76663909  0.62251246  0.65265109    -0.17000
C1622       C  0.78082100  0.59558362  0.63172962     0.11400
S1623       S  0.67593564  0.63637895  0.59997894    -0.32000
S1624       S  0.82085907  0.58108426  0.64964914    -0.32000
H1625       H  0.82817334  0.55467678  0.62375315     0.29400
H1626       H  0.68051074  0.66878906  0.61004401     0.29400
H1627       H  0.71804390  0.58437492  0.56633589     0.19900
H1628       H  0.77972049  0.63254528  0.67789554     0.20000
C1629       C  0.74842538  0.62197095  0.92655070    -0.05900
C1630       C  0.74157645  0.58765352  0.93167824    -0.17000
C1631       C  0.75950084  0.56646533  0.46493256     0.11300
C1632       C  0.78239919  0.57865349  0.49189422    -0.05800
C1633       C  0.78858950  0.61129309  0.98241380    -0.17000
C1634       C  0.77224599  0.63379908  0.95278757     0.11400
S1635       S  0.74697974  0.52319416  0.47099499    -0.32000
S1636       S  0.78060754  0.67724626  0.95398424    -0.32000
H1637       H  0.74579735  0.68628579  0.95376187     0.29400
H1638       H  0.74128992  0.51815577  0.52098831     0.29400
H1639       H  0.72339988  0.57802418  0.91227006     0.19900
H1640       H  0.80568320  0.62066232  0.00352562     0.20000
C1641       C  0.57570358  0.86650733  0.57440346    -0.05900
C1642       C  0.54928396  0.84736370  0.60670771    -0.17000
C1643       C  0.55736945  0.82306354  0.64152330     0.11300
C1644       C  0.59301311  0.81753517  0.64332081    -0.05800
C1645       C  0.61935564  0.83466283  0.60785341    -0.17000
C1646       C  0.61099630  0.85916678  0.57350796     0.11400
S1647       S  0.52167959  0.80400957  0.68708549    -0.32000
S1648       S  0.64625324  0.88275195  0.53266290    -0.32000
H1649       H  0.62655559  0.89283072  0.49755660     0.29400
H1650       H  0.49453916  0.81273032  0.66232136     0.29400
H1651       H  0.52227179  0.85420578  0.60819007     0.19900
H1652       H  0.64672289  0.83029651  0.60857047     0.20000
C1653       C  0.54564448  0.88239954  0.98602848    -0.05900
C1654       C  0.53529933  0.84873860  0.00094417    -0.17000
C1655       C  0.54832717  0.82351910  0.97396929     0.11300
C1656       C  0.57083014  0.83200579  0.92924380    -0.05800
C1657       C  0.57904167  0.86578315  0.91265827    -0.17000
C1658       C  0.56694611  0.89073570  0.94036672     0.11400
S1659       S  0.54022163  0.78064778  0.00027777    -0.32000
S1660       S  0.58953075  0.93464959  0.42169317    -0.32000
H1661       H  0.55703270  0.94960571  0.43175669     0.29400
H1662       H  0.51989218  0.78645530  0.04406250     0.29400
H1663       H  0.51981871  0.84181356  0.03622040     0.19900
H1664       H  0.59642779  0.87281200  0.87855971     0.20000
C1665       C  0.77597092  0.81795501  0.62578777    -0.05900
C1666       C  0.76814822  0.85046123  0.60795920    -0.17000
C1667       C  0.78857528  0.86807597  0.56642936     0.11300
C1668       C  0.81828885  0.85354006  0.54212234    -0.05800
C1669       C  0.82768865  0.82233957  0.56189728    -0.17000
C1670       C  0.80714816  0.80442429  0.60278737     0.11400
S1671       S  0.77419004  0.90813975  0.54502250    -0.32000
S1672       S  0.82159382  0.76375316  0.62139547    -0.32000
H1673       H  0.82265649  0.77063548  0.66758137     0.29400
H1674       H  0.78247052  0.90413441  0.49675155     0.29400
H1675       H  0.74499627  0.86192980  0.62498221     0.19900
H1676       H  0.85038497  0.81095983  0.54340181     0.20000
C1677       C  0.75778348  0.78567871  0.92081356    -0.05900
C1678       C  0.79225752  0.77446285  0.91420089    -0.17000
C1679       C  0.81818480  0.79025604  0.93120886     0.11300
C1680       C  0.80977601  0.81838998  0.95406690    -0.05800
C1681       C  0.77443222  0.82596755  0.96759410    -0.17000
C1682       C  0.74814523  0.80904261  0.95244204     0.11400
S1683       S  0.86198037  0.77495224  0.91968331    -0.32000
S1684       S  0.70328710  0.81824537  0.97463852    -0.32000
H1685       H  0.68946182  0.78692980  0.97063426     0.29400
H1686       H  0.87345740  0.78890738  0.95630346     0.29400
H1687       H  0.79981888  0.75475879  0.89294907     0.19900
H1688       H  0.76055074  0.85245497  0.48474315     0.20000
loop_ 
_geom_bond_atom_site_label_1 
_geom_bond_atom_site_label_2 
_geom_bond_distance 
_geom_bond_site_symmetry_2 
_ccdc_geom_bond_type 
N1            C5   1.360       .  A
N1          C213   1.354       .  A
N1          C191   1.447   1_556  S
C2          N212   1.352       .  A
C2            C3   1.380       .  A
C2          C203   1.467       .  S
C3            C4   1.367       .  A
C3            H6   1.082       .  S
C4          C216   1.381       .  A
C4            H7   1.082       .  S
C5          C215   1.380       .  A
C5          C253   1.470       .  S
N8           C12   1.355       .  A
N8            C9   1.366       .  A
N8          C387   1.452   1_554  S
C9           C10   1.388       .  A
C9         C1098   1.492       .  S
C10          C11   1.362       .  A
C10         H857   1.083       .  S
C11          C12   1.377       .  A
C11          H14   1.083       .  S
C12         C164   1.463       .  S
H13         C854   1.083       .  S
N15          C19   1.355       .  A
N15          C16   1.357       .  A
N15         C155   1.445   1_554  S
C16          C17   1.387       .  A
C16          C45   1.490   1_554  S
C17          C18   1.370       .  A
C17          H20   1.082   1_545  S
C18          C19   1.379       .  A
C18          H21   1.082       .  S
C19         C140   1.475       .  S
N22          C27   1.349       .  A
N22          C26   1.348       .  A
N22          H54   1.044       .  S
N23          C30   1.350       .  A
N23         C242   1.352       .  A
N24          C29   1.358       .  A
N24          C28   1.357       .  A
N24          H55   1.042   1_554  S
N25          C32   1.353       .  A
N25         C455   1.351       .  A
C26          C34   1.384       .  A
C26          C42   1.400       .  A
C27          C43   1.409       .  A
C27          C35   1.388       .  A
C28          C36   1.388       .  A
C28          C45   1.425   1_554  A
C29          C44   1.421       .  A
C29          C37   1.385       .  A
C30          C42   1.412       .  A
C30          C38   1.387       .  A
C31         N234   1.350       .  A
C31         C467   1.401       .  A
C31         C250   1.382       .  A
C32         C884   1.387       .  A
C32         C254   1.417       .  A
C33         N447   1.353       .  A
C33          C44   1.411       .  A
C33         C885   1.381       .  A
C34          C35   1.378       .  A
C34          H46   1.081       .  S
C35          H47   1.080       .  S
C36          C37   1.376       .  A
C36          H48   1.077       .  S
C37          H49   1.082       .  S
C38          C39   1.375       .  A
C38          H50   1.082       .  S
C39         C242   1.382       .  A
C39          H51   1.080       .  S
C40         C876   1.387   1_456  A
C40         C463   1.375   1_556  A
C40          H52   1.082       .  S
C41         C877   1.381   1_455  A
C41         C462   1.373   1_545  A
C41          H53   1.072       .  S
C42         C216   1.468       .  S
C43         C243   1.420       .  A
C43        C1064   1.482       .  S
C44          C60   1.505       .  S
C45         C453   1.404   1_545  A
N56          C60   1.363       .  A
N56          C57   1.364       .  A
N56         C975   1.438       .  S
C57          C58   1.382       .  A
C57         C960   1.496       .  S
C58          C59   1.376       .  A
C58          H61   1.082       .  S
C59          C60   1.384       .  A
C59          H62   1.082       .  S
C63          N81   1.359       .  A
C63         C100   1.459       .  S
C63         C152   1.496       .  S
N64          N81   1.331       .  A
N64          N86   1.316       .  A
N64        Co101   2.107       .  S
C65          N90   1.344       .  A
C65         C103   1.467       .  S
C65         H110   1.081       .  S
H66         C107   1.080       .  S
C67          N91   1.345       .  A
C67          C71   1.468       .  S
C67          H96   1.081       .  S
Co68         N86   2.080       .  S
Co68         N76   2.062       .  S
Co68        N108   2.080       .  S
Co68         N84   2.091       .  S
Co68       Cl112   2.451       .  S
N69         C107   1.340       .  A
N69          N76   1.320       .  A
N69         Co70   2.089       .  S
Co70         N73   2.094       .  S
Co70         N90   2.090       .  S
Co70         N77   2.082       .  S
Co70       Cl112   2.455       .  S
C71         N109   1.354       .  A
C71         C179   1.498       .  S
N72          N79   1.322       .  A
N72         N102   1.324       .  A
N72        Co105   2.088       .  S
N73          N91   1.319       .  A
N73         N109   1.327       .  A
N74         C103   1.354       .  A
N74          N84   1.327       .  A
H75         C100   1.081       .  S
N76          N97   1.317       .  A
N77          N95   1.321       .  A
N77          N82   1.322       .  A
C78          N82   1.350       .  A
C78         C106   1.457       .  S
C78         C167   1.472       .  S
N79          C94   1.336       .  A
N79        Co101   2.080       .  S
C80         N108   1.341       .  A
C80          C83   1.463       .  S
C80         H114   1.082       .  S
C83         N104   1.346       .  A
C83         C143   1.459       .  S
N84          N90   1.317       .  A
N85         C111   1.341       .  A
N85          N87   1.317       .  A
N85        Co101   2.088       .  S
N86         C100   1.341       .  A
N87         N115   1.330       .  A
N87        Co105   2.095       .  S
H88         C111   1.082       .  S
H89         C106   1.080       .  S
N91        Co105   2.093       .  S
N92         N104   1.319       .  A
N92         N108   1.320       .  A
N92        Co101   2.077       .  S
C93          N97   1.344       .  A
C93         C107   1.470       .  S
C93         C200   1.472       .  S
C94         C113   1.458       .  S
C94          H98   1.082       .  S
N95         C106   1.335       .  A
N95        Co105   2.077       .  S
C99         N115   1.355       .  A
C99         C111   1.462       .  S
C99         C119   1.489       .  S
Co101      Cl112   2.445       .  S
N102        C113   1.351       .  A
C103        C188   1.503       .  S
Co105      Cl112   2.452       .  S
C113        C128   1.476       .  S
C116        C117   1.409       .  A
C116        C121   1.419       .  A
C116        C901   1.499   1_455  S
C117        C118   1.411       .  A
C117        H126   1.083       .  S
C118        C119   1.416       .  A
C118        S122   1.805       .  S
C119        C120   1.401       .  A
C120        C121   1.399       .  A
C120        H127   1.084       .  S
C121        S123   1.806       .  S
S122        H125   1.406       .  S
S123        H968   1.403       .  S
H124        S967   1.403       .  S
C128        C129   1.403       .  A
C128        C133   1.415       .  A
C129        C341   1.395       .  A
C129        H138   1.084       .  S
C130        C131   1.415       .  A
C130        C340   1.394       .  A
C130        S134   1.803       .  S
C131        N900   1.437   1_455  S
C131        C132   1.401   1_455  A
C132        C344   1.397   1_654  A
C132        H983   1.083       .  S
C133        C343   1.398   1_455  A
C133        S135   1.800   1_455  S
S134        H137   1.403       .  S
S135        H136   1.407   1_655  S
H139        C976   1.083       .  S
C140        C141   1.401       .  A
C140        C145   1.418       .  A
C141        C142   1.398       .  A
C141        H150   1.084       .  S
C142        C143   1.409       .  A
C142        S146   1.803       .  S
C143        C144   1.396       .  A
C144        C145   1.396       .  A
C144        H151   1.083       .  S
C145        S147   1.811       .  S
S146        H149   1.407       .  S
S147        H148   1.406       .  S
C152        C153   1.403       .  A
C152        C157   1.419       .  A
C153        C365   1.404       .  A
C153        H162   1.084       .  S
C154        C155   1.417       .  A
C154        C364   1.400       .  A
C154        S158   1.800       .  S
C155        C367   1.403       .  A
C156        C157   1.410       .  A
C156        C366   1.403       .  A
C156        H163   1.082       .  S
C157        S159   1.807       .  S
S158        H161   1.404   1_556  S
S159        H160   1.407       .  S
C164        C165   1.399       .  A
C164        C169   1.404       .  A
C165        C166   1.395       .  A
C165        H174   1.083       .  S
C166        C167   1.416       .  A
C166        S170   1.809       .  S
C167        C168   1.406       .  A
C168        C169   1.396       .  A
C168        H175   1.084       .  S
C169        S171   1.802       .  S
S170        H173   1.407   1_455  S
S171        H172   1.406   1_554  S
C176        N219   1.451       .  S
C176        C177   1.408       .  A
C176        C181   1.411       .  A
C177        C178   1.410       .  A
C177        H186   1.079       .  S
C178        C179   1.416       .  A
C178        S182   1.808       .  S
C179        C180   1.407       .  A
C180        C181   1.404       .  A
C180        H187   1.083       .  S
C181        S394   1.797       .  S
S182        H185   1.407       .  S
S183        C392   1.798       .  S
S183        H184   1.404       .  S
C188        C189   1.411       .  A
C188        C193   1.420       .  A
C189        C190   1.407       .  A
C189        H198   1.081       .  S
C190        C191   1.411       .  A
C190        S194   1.799       .  S
C191        C192   1.403       .  A
C192        C193   1.402       .  A
C192        H199   1.084       .  S
C193        S195   1.800       .  S
S194        H197   1.402   1_554  S
S195        H196   1.408       .  S
C200        C201   1.408       .  A
C200        C205   1.409       .  A
C201        C202   1.391       .  A
C201        H210   1.083       .  S
C202        C203   1.404       .  A
C202        S206   1.804       .  S
C203        C204   1.402       .  A
C204        C205   1.392       .  A
C204        H422   1.079       .  S
C205        S207   1.801       .  S
S206        H209   1.407       .  S
S207        H208   1.407       .  S
H211        C415   1.079       .  S
N212        C216   1.358       .  A
N212        C402   1.446       .  S
C213        C214   1.381       .  A
C213        C414   1.470       .  S
C214        C215   1.365       .  A
C214        H217   1.082       .  S
C215        H218   1.082       .  S
N219        C223   1.354       .  A
N219        C220   1.365       .  A
C220        C221   1.388       .  A
C220        C887   1.491       .  S
C221        C222   1.362       .  A
C221       H1068   1.083       .  S
C222        C223   1.375       .  A
C222        H225   1.082       .  S
C223        C375   1.460       .  S
H224       C1065   1.083       .  S
N226        C230   1.354       .  A
N226        C227   1.358       .  A
N226        C366   1.447       .  S
C227        C228   1.389       .  A
C227        C256   1.490       .  S
C228        C229   1.370       .  A
C228        H231   1.083   1_545  S
C229        C230   1.378       .  A
C229        H232   1.082       .  S
C230        C351   1.468       .  S
N233        C238   1.349   1_556  A
N233        C237   1.350   1_556  A
N233        H265   1.043       .  S
N234        C241   1.349       .  A
N235        C240   1.358       .  A
N235        C239   1.357       .  A
N235        H266   1.040       .  S
N236        C243   1.355       .  A
N236        C666   1.352       .  A
C237        C245   1.382       .  A
C237        C253   1.400   1_554  A
C238        C254   1.412       .  A
C238        C246   1.390       .  A
C239        C247   1.385       .  A
C239        C256   1.425       .  A
C240        C255   1.421       .  A
C240        C248   1.385       .  A
C241        C253   1.410       .  A
C241        C249   1.386       .  A
C242        C678   1.404       .  A
C243       C1095   1.386       .  A
C244        N658   1.352       .  A
C244       C1096   1.381       .  A
C244        C255   1.411       .  A
C245        C246   1.376       .  A
C245        H257   1.081       .  S
C246        H258   1.082       .  S
C247        C248   1.378       .  A
C247        H259   1.077       .  S
C248        H260   1.082       .  S
C249        C250   1.374       .  A
C249        H261   1.082       .  S
C250        H262   1.080       .  S
C251       C1087   1.389       .  A
C251        C674   1.376       .  A
C251        H263   1.083       .  S
C252       C1088   1.380   1_455  A
C252        C673   1.373   1_545  A
C252        H264   1.074       .  S
C254        C853   1.476       .  S
C255        C271   1.506       .  S
C256        C664   1.401       .  A
N267        C271   1.362       .  A
N267        C268   1.365       .  A
N267       C1186   1.437       .  S
C268        C269   1.383       .  A
C268       C1171   1.500       .  S
C269        C270   1.378       .  A
C269        H272   1.082       .  S
C270        C271   1.384       .  A
C270        H273   1.082       .  S
C274        N292   1.357       .  A
C274        C311   1.457       .  S
C274        C363   1.490       .  S
N275        N292   1.329       .  A
N275        N297   1.315       .  A
N275       Co312   2.095       .  S
C276        N301   1.344       .  A
C276        C314   1.468       .  S
C276        H321   1.081       .  S
H277        C318   1.080       .  S
C278        N302   1.347       .  A
C278        C282   1.471       .  S
C278        H307   1.080       .  S
Co279       N297   2.072       .  S
Co279       N287   2.065       .  S
Co279       N319   2.080       .  S
Co279       N295   2.082       .  S
Co279      Cl323   2.448       .  S
N280        C318   1.342       .  A
N280        N287   1.321       .  A
N280       Co281   2.095       .  S
Co281       N284   2.091       .  S
Co281       N301   2.087       .  S
Co281       N288   2.084       .  S
Co281      Cl323   2.453       .  S
C282        N320   1.354       .  A
C282        C390   1.503       .  S
N283        N290   1.323       .  A
N283        N313   1.323       .  A
N283       Co316   2.085       .  S
N284        N302   1.318       .  A
N284        N320   1.327       .  A
N285        C314   1.352       .  A
N285        N295   1.326       .  A
H286        C311   1.081       .  S
N287        N308   1.317       .  A
N288        N306   1.322       .  A
N288        N293   1.322       .  A
C289        N293   1.350       .  A
C289        C317   1.456       .  S
C289        C378   1.469       .  S
N290        C305   1.336       .  A
N290       Co312   2.084       .  S
C291        N319   1.339       .  A
C291        C294   1.465       .  S
C291        H325   1.082       .  S
C294        N315   1.345       .  A
C294        C354   1.460       .  S
N295        N301   1.315       .  A
N296        C322   1.338       .  A
N296        N298   1.316       .  A
N296       Co312   2.070       .  S
N297        C311   1.340       .  A
N298        N326   1.330       .  A
N298       Co316   2.099       .  S
H299        C322   1.082       .  S
H300        C317   1.080       .  S
N302       Co316   2.100       .  S
N303        N315   1.320       .  A
N303        N319   1.320       .  A
N303       Co312   2.076       .  S
C304        N308   1.344       .  A
C304        C318   1.471       .  S
C304        C411   1.473       .  S
C305        C324   1.458       .  S
C305        H309   1.082       .  S
N306        C317   1.335       .  A
N306       Co316   2.074       .  S
C310        N326   1.356       .  A
C310        C322   1.456       .  S
C310        C330   1.487       .  S
Co312      Cl323   2.444       .  S
N313        C324   1.349       .  A
C314        C399   1.502       .  S
Co316      Cl323   2.452       .  S
C324        C339   1.472       .  S
C327        C328   1.406       .  A
C327        C332   1.417       .  A
C327       C1112   1.490   1_455  S
C328        C329   1.407       .  A
C328        H337   1.083       .  S
C329        C330   1.414       .  A
C329        S333   1.802       .  S
C330        C331   1.404       .  A
C331        C332   1.399       .  A
C331        H338   1.084       .  S
C332        S334   1.808       .  S
S333        H336   1.407       .  S
S334       H1179   1.402       .  S
H335       S1178   1.402       .  S
C339        C340   1.401   1_556  A
C339        C344   1.414       .  A
C340        H349   1.084       .  S
C341        C342   1.414       .  A
C341        S345   1.802       .  S
C342       N1111   1.438   1_455  S
C342        C343   1.401   1_455  A
C343       H1194   1.083       .  S
C344        S346   1.802   1_455  S
S345        H348   1.403       .  S
S346        H347   1.408   1_655  S
H350       C1187   1.083       .  S
C351        C352   1.400       .  A
C351        C356   1.413       .  A
C352        C353   1.399       .  A
C352        H361   1.084       .  S
C353        C354   1.413       .  A
C353        S357   1.805       .  S
C354        C355   1.396       .  A
C355        C356   1.391       .  A
C355        H362   1.084       .  S
C356        S358   1.805       .  S
S357        H360   1.406       .  S
S358        H359   1.408       .  S
C363        C364   1.401       .  A
C363        C368   1.418       .  A
C364        H373   1.084       .  S
C365        C366   1.417       .  A
C365        S369   1.801       .  S
C367        C368   1.410       .  A
C367        H374   1.082   1_556  S
C368        S370   1.808       .  S
S369        H372   1.404       .  S
S370        H371   1.406       .  S
C375        C376   1.398       .  A
C375        C380   1.403       .  A
C376        C377   1.393       .  A
C376        H385   1.084       .  S
C377        C378   1.416       .  A
C377        S381   1.808       .  S
C378        C379   1.406       .  A
C379        C380   1.395       .  A
C379        H386   1.084       .  S
C380        S382   1.802       .  S
S381        H384   1.407   1_455  S
S382        H383   1.404       .  S
C387        C388   1.407       .  A
C387        C392   1.412       .  A
C388        C389   1.411       .  A
C388        H397   1.078   1_556  S
C389        C390   1.418       .  A
C389        S393   1.806       .  S
C390        C391   1.408       .  A
C391        C392   1.405       .  A
C391        H398   1.083       .  S
S393        H396   1.407   1_556  S
S394        H395   1.403       .  S
C399        C400   1.411       .  A
C399        C404   1.420       .  A
C400        C401   1.406       .  A
C400        H409   1.081       .  S
C401        C402   1.411       .  A
C401        S405   1.798       .  S
C402        C403   1.403       .  A
C403        C404   1.400       .  A
C403        H410   1.083       .  S
C404        S406   1.801       .  S
S405        H408   1.401       .  S
S406        H407   1.408       .  S
C411        C412   1.406       .  A
C411        C416   1.410       .  A
C412        C413   1.391       .  A
C412        H421   1.083       .  S
C413        C414   1.407       .  A
C413        S417   1.804       .  S
C414        C415   1.403       .  A
C415        C416   1.396       .  A
C416        S418   1.801       .  S
S417        H420   1.407       .  S
S418        H419   1.407       .  S
N423        C427   1.364       .  A
N423        C635   1.356       .  A
N423        C613   1.450   1_556  S
C424        N634   1.355       .  A
C424        C425   1.380       .  A
C424        C625   1.470       .  S
C425        C426   1.365       .  A
C425        H428   1.082       .  S
C426        C638   1.381       .  A
C426        H429   1.082       .  S
C427        C637   1.381       .  A
C427        C675   1.475       .  S
N430        C434   1.360       .  A
N430        C431   1.370       .  A
N430        C809   1.458   1_554  S
C431        C432   1.383       .  A
C431       C1520   1.482   1_455  S
C432        C433   1.358       .  A
C432       H1279   1.083   1_455  S
C433        C434   1.380       .  A
C433        H436   1.082       .  S
C434        C586   1.467       .  S
H435       C1276   1.082       .  S
N437        C441   1.355       .  A
N437        C438   1.357       .  A
N437        C577   1.447   1_554  S
C438        C439   1.389       .  A
C438        C467   1.491   1_554  S
C439        C440   1.373       .  A
C439        H442   1.083       .  S
C440        C441   1.378       .  A
C440        H443   1.082       .  S
C441        C562   1.476       .  S
N444        C449   1.350       .  A
N444        C448   1.350       .  A
N444        H476   1.043       .  S
N445        C452   1.349       .  A
N445        C664   1.351   1_565  A
N446        C451   1.357       .  A
N446        C450   1.357       .  A
N446        H477   1.040   1_554  S
N447        C454   1.353   1_545  A
C448        C456   1.384       .  A
C448        C464   1.404       .  A
C449        C465   1.413       .  A
C449        C457   1.387       .  A
C450        C458   1.387       .  A
C450        C467   1.424   1_554  A
C451        C466   1.418       .  A
C451        C459   1.384       .  A
C452        C464   1.412       .  A
C452        C460   1.387       .  A
C453        N656   1.351       .  A
C453        C672   1.383       .  A
C454       C1306   1.388   1_564  A
C454        C676   1.423       .  A
C455       C1307   1.381       .  A
C455        C466   1.410       .  A
C456        C457   1.380       .  A
C456        H468   1.082       .  S
C457        H469   1.078       .  S
C458        C459   1.374       .  A
C458        H470   1.078       .  S
C459        H471   1.082       .  S
C460        C461   1.374       .  A
C460        H472   1.082       .  S
C461        C664   1.382   1_565  A
C461        H473   1.081       .  S
C462       C1298   1.387   1_455  A
C462        H474   1.081       .  S
C463       C1299   1.381   1_455  A
C463        H475   1.074   1_554  S
C464        C638   1.472       .  S
C465        C665   1.424       .  A
C465       C1486   1.497       .  S
C466        C482   1.499       .  S
N478        C482   1.358       .  A
N478        C479   1.361       .  A
N478       C1397   1.436       .  S
C479        C480   1.383       .  A
C479       C1382   1.489       .  S
C480        C481   1.377       .  A
C480        H483   1.082       .  S
C481        C482   1.383       .  A
C481        H484   1.082       .  S
C485        N503   1.359       .  A
C485        C522   1.455       .  S
C485        C574   1.490       .  S
N486        N503   1.331       .  A
N486        N508   1.314       .  A
N486       Co523   2.106       .  S
C487        N512   1.344       .  A
C487        C525   1.467       .  S
C487        H532   1.081       .  S
H488        C529   1.079       .  S
C489        N513   1.348       .  A
C489        C493   1.480       .  S
C489        H518   1.076       .  S
Co490       N508   2.063       .  S
Co490       N498   2.079       .  S
Co490       N530   2.094       .  S
Co490       N506   2.084       .  S
Co490      Cl534   2.455       .  S
N491        C529   1.340       .  A
N491        N498   1.319       .  A
N491       Co492   2.082       .  S
Co492       N495   2.095       .  S
Co492       N512   2.088       .  S
Co492       N499   2.065       .  S
Co492      Cl534   2.449       .  S
C493        N531   1.357       .  A
C493        C601   1.520       .  S
N494        N501   1.324       .  A
N494        N524   1.327       .  A
N494       Co527   2.103       .  S
N495        N513   1.317       .  A
N495        N531   1.328       .  A
N496        C525   1.354       .  A
N496        N506   1.327       .  A
H497        C522   1.081       .  S
N498        N519   1.318       .  A
N499        N517   1.323       .  A
N499        N504   1.318       .  A
C500        N504   1.343       .  A
C500        C528   1.470       .  S
C500        C589   1.471       .  S
N501        C516   1.331       .  A
N501       Co523   2.071       .  S
C502        N530   1.343       .  A
C502        C505   1.467       .  S
C502        H536   1.081       .  S
C505        N526   1.344       .  A
C505        C565   1.464       .  S
N506        N512   1.314       .  A
N507        C533   1.340       .  A
N507        N509   1.318       .  A
N507       Co523   2.083       .  S
N508        C522   1.338       .  A
N509        N537   1.334       .  A
N509       Co527   2.117       .  S
H510        C533   1.081       .  S
H511        C528   1.081       .  S
N513       Co527   2.112       .  S
N514        N526   1.319       .  A
N514        N530   1.320       .  A
N514       Co523   2.070       .  S
C515        N519   1.348       .  A
C515        C529   1.472       .  S
C515        C622   1.479       .  S
C516        C535   1.452       .  S
C516        H520   1.082       .  S
N517        C528   1.344       .  A
N517       Co527   2.103       .  S
C521        N537   1.361       .  A
C521        C533   1.459       .  S
C521        C541   1.504       .  S
Co523      Cl534   2.437       .  S
N524        C535   1.354       .  A
C525        C610   1.503       .  S
Co527      Cl534   2.468       .  S
C535        C550   1.473       .  S
C538        C539   1.405       .  A
C538        C543   1.419       .  A
C538       C1323   1.503   1_455  S
C539        C540   1.409       .  A
C539        H548   1.083       .  S
C540        C541   1.416       .  A
C540        S544   1.792       .  S
C541        C542   1.407       .  A
C542        C543   1.406       .  A
C542        H549   1.083       .  S
C543        S545   1.805       .  S
S544        H547   1.406       .  S
S545       H1390   1.403       .  S
H546       S1389   1.402       .  S
C550        C551   1.403       .  A
C550        C555   1.412       .  A
C551        C763   1.392       .  A
C551        H560   1.084       .  S
C552        C762   1.393       .  A
C552        C553   1.410       .  A
C552        S556   1.801       .  S
C553       N1322   1.434   1_455  S
C553        C554   1.401   1_455  A
C554        C766   1.399   1_654  A
C554       H1405   1.083       .  S
C555        C765   1.399   1_455  A
C555        S557   1.800   1_455  S
S556        H559   1.406       .  S
S557        H558   1.408   1_655  S
H561       C1398   1.083       .  S
C562        C563   1.402       .  A
C562        C567   1.423       .  A
C563        C564   1.398       .  A
C563        H572   1.084       .  S
C564        C565   1.411       .  A
C564        S568   1.804       .  S
C565        C566   1.395       .  A
C566        C567   1.395       .  A
C566        H573   1.084       .  S
C567        S569   1.811       .  S
S568        H571   1.407       .  S
S569        H570   1.391       .  S
C574        C575   1.402       .  A
C574        C579   1.419       .  A
C575        C787   1.403       .  A
C575        H584   1.084       .  S
C576        C786   1.401       .  A
C576        C577   1.418       .  A
C576        S580   1.800       .  S
C577        C789   1.402       .  A
C578        C788   1.403       .  A
C578        C579   1.405       .  A
C578        H585   1.083       .  S
C579        S581   1.804       .  S
S580        H583   1.405   1_556  S
S581        H582   1.407       .  S
C586        C587   1.401       .  A
C586        C591   1.412       .  A
C587        C588   1.393       .  A
C587        H596   1.080       .  S
C588        C589   1.407       .  A
C588        S592   1.793       .  S
C589        C590   1.403       .  A
C590        C591   1.390       .  A
C590        H597   1.083       .  S
C591        S593   1.807       .  S
S592        H595   1.407       .  S
S593        H594   1.403       .  S
C598        N641   1.457       .  S
C598        C599   1.403       .  A
C598        C603   1.414       .  A
C599        C600   1.415       .  A
C599        H608   1.075       .  S
C600        C601   1.426       .  A
C600        S604   1.802       .  S
C601        C602   1.412       .  A
C602        C603   1.406       .  A
C602        H609   1.083       .  S
C603        S816   1.801       .  S
S604        H607   1.407   1_455  S
S605        C814   1.800       .  S
S605        H606   1.403       .  S
C610        C611   1.411       .  A
C610        C615   1.419       .  A
C611        C612   1.407       .  A
C611        H620   1.081       .  S
C612        C613   1.411       .  A
C612        S616   1.794       .  S
C613        C614   1.404       .  A
C614        C615   1.401       .  A
C614        H621   1.082       .  S
C615        S617   1.800       .  S
S616        H619   1.402       .  S
S617        H618   1.407       .  S
C622        C623   1.408       .  A
C622        C627   1.413       .  A
C623        C624   1.392       .  A
C623        H632   1.083       .  S
C624        C625   1.406       .  A
C624        S628   1.804       .  S
C625        C626   1.401       .  A
C626        C627   1.395       .  A
C626        H844   1.077       .  S
C627        S629   1.802       .  S
S628        H631   1.406       .  S
S629        H630   1.407       .  S
H633        C837   1.081       .  S
N634        C638   1.362       .  A
N634        C824   1.449       .  S
C635        C636   1.380       .  A
C635        C836   1.472       .  S
C636        C637   1.365       .  A
C636        H639   1.082       .  S
C637        H640   1.082       .  S
N641        C645   1.360       .  A
N641        C642   1.366       .  A
C642        C643   1.382       .  A
C642       C1309   1.479   1_455  S
C643        C644   1.359       .  A
C643       H1490   1.083   1_455  S
C644        C645   1.381       .  A
C644        H647   1.082       .  S
C645        C797   1.468       .  S
H646       C1487   1.082       .  S
N648        C652   1.357       .  A
N648        C649   1.358       .  A
N648        C788   1.448       .  S
C649        C650   1.389       .  A
C649        C678   1.493       .  S
C650        C651   1.373       .  A
C650        H653   1.083       .  S
C651        C652   1.378       .  A
C651        H654   1.082       .  S
C652        C773   1.478       .  S
N655        C660   1.351   1_556  A
N655        C659   1.351   1_556  A
N655        H687   1.043       .  S
N656        C663   1.350       .  A
N657        C662   1.356       .  A
N657        C661   1.357       .  A
N657        H688   1.044       .  S
N658        C665   1.354   1_545  A
C659        C667   1.383       .  A
C659        C675   1.405   1_554  A
C660        C676   1.414       .  A
C660        C668   1.388       .  A
C661        C669   1.388       .  A
C661        C678   1.425       .  A
C662        C677   1.418       .  A
C662        C670   1.384       .  A
C663        C675   1.411       .  A
C663        C671   1.386       .  A
C665       C1517   1.388   1_565  A
C666       C1518   1.380       .  A
C666        C677   1.411       .  A
C667        C668   1.380       .  A
C667        H679   1.083       .  S
C668        H680   1.077       .  S
C669        C670   1.374       .  A
C669        H681   1.077       .  S
C670        H682   1.082       .  S
C671        C672   1.373       .  A
C671        H683   1.082       .  S
C672        H684   1.080       .  S
C673       C1509   1.387   1_455  A
C673        H685   1.079       .  S
C674       C1510   1.380   1_455  A
C674        H686   1.077       .  S
C676       C1275   1.497       .  S
C677        C693   1.503       .  S
N689        C693   1.359       .  A
N689        C690   1.361       .  A
N689       C1608   1.433       .  S
C690        C691   1.383       .  A
C690       C1593   1.496       .  S
C691        C692   1.378       .  A
C691        H694   1.082       .  S
C692        C693   1.384       .  A
C692        H695   1.082       .  S
C696        N714   1.359       .  A
C696        C733   1.454       .  S
C696        C785   1.489       .  S
N697        N714   1.331       .  A
N697        N719   1.315       .  A
N697       Co734   2.103       .  S
C698        N723   1.343       .  A
C698        C736   1.465       .  S
C698        H743   1.081       .  S
H699        C740   1.080       .  S
C700        N724   1.347       .  A
C700        C704   1.480       .  S
C700        H729   1.076       .  S
Co701       N719   2.066       .  S
Co701       N709   2.084       .  S
Co701       N741   2.100       .  S
Co701       N717   2.095       .  S
Co701      Cl745   2.458       .  S
N702        C740   1.340       .  A
N702        N709   1.320       .  A
N702       Co703   2.080       .  S
Co703       N706   2.096       .  S
Co703       N723   2.088       .  S
Co703       N710   2.063       .  S
Co703      Cl745   2.448       .  S
C704        N742   1.358       .  A
C704        C812   1.521       .  S
N705        N712   1.324       .  A
N705        N735   1.326       .  A
N705       Co738   2.100       .  S
N706        N724   1.316       .  A
N706        N742   1.328       .  A
N707        C736   1.357       .  A
N707        N717   1.329       .  A
H708        C733   1.081       .  S
N709        N730   1.319       .  A
N710        N728   1.323       .  A
N710        N715   1.317       .  A
C711        N715   1.343       .  A
C711        C739   1.471       .  S
C711        C800   1.471       .  S
N712        C727   1.334       .  A
N712       Co734   2.076       .  S
C713        N741   1.345       .  A
C713        C716   1.470       .  S
C713        H747   1.082       .  S
C716        N737   1.343       .  A
C716        C776   1.465       .  S
N717        N723   1.315       .  A
N718        C744   1.339       .  A
N718        N720   1.317       .  A
N718       Co734   2.079       .  S
N719        C733   1.338       .  A
N720        N748   1.333       .  A
N720       Co738   2.111       .  S
H721        C744   1.081       .  S
H722        C739   1.081       .  S
N724       Co738   2.107       .  S
N725        N737   1.319       .  A
N725        N741   1.321       .  A
N725       Co734   2.071       .  S
C726        N730   1.349       .  A
C726        C740   1.469       .  S
C726        C833   1.478       .  S
C727        C746   1.456       .  S
C727        H731   1.082       .  S
N728        C739   1.344       .  A
N728       Co738   2.103       .  S
C732        N748   1.360       .  A
C732        C744   1.459       .  S
C732        C752   1.501       .  S
Co734      Cl745   2.438       .  S
N735        C746   1.353       .  A
C736        C821   1.507       .  S
Co738      Cl745   2.465       .  S
C746        C761   1.476       .  S
C749        C750   1.404       .  A
C749        C754   1.418       .  A
C749       C1534   1.496   1_455  S
C750        C751   1.409       .  A
C750        H759   1.084       .  S
C751        C752   1.416       .  A
C751        S755   1.794       .  S
C752        C753   1.407       .  A
C753        C754   1.403       .  A
C753        H760   1.083       .  S
C754        S756   1.808       .  S
S755        H758   1.406       .  S
S756       H1601   1.402       .  S
H757       S1600   1.403       .  S
C761        C762   1.404   1_556  A
C761        C766   1.415       .  A
C762        H771   1.084   1_554  S
C763        C764   1.411       .  A
C763        S767   1.800       .  S
C764       N1533   1.437   1_455  S
C764        C765   1.404   1_455  A
C765       H1616   1.083       .  S
C766        S768   1.800   1_455  S
S767        H770   1.405       .  S
S768        H769   1.408   1_655  S
H772       C1609   1.083       .  S
C773        C774   1.402       .  A
C773        C778   1.422       .  A
C774        C775   1.398       .  A
C774        H783   1.084       .  S
C775        C776   1.411       .  A
C775        S779   1.804       .  S
C776        C777   1.396       .  A
C777        C778   1.396       .  A
C777        H784   1.084       .  S
C778        S780   1.810       .  S
S779        H782   1.406       .  S
S780        H781   1.393       .  S
C785        C786   1.400       .  A
C785        C790   1.418       .  A
C786        H795   1.084       .  S
C787        C788   1.418       .  A
C787        S791   1.799       .  S
C789        C790   1.408       .  A
C789        H796   1.082   1_556  S
C790        S792   1.808       .  S
S791        H794   1.405       .  S
S792        H793   1.407   1_556  S
C797        C798   1.401       .  A
C797        C802   1.412       .  A
C798        C799   1.394       .  A
C798        H807   1.081       .  S
C799        C800   1.408       .  A
C799        S803   1.795       .  S
C800        C801   1.403       .  A
C801        C802   1.390       .  A
C801        H808   1.084       .  S
C802        S804   1.807       .  S
S803        H806   1.407       .  S
S804        H805   1.403       .  S
C809        C810   1.404       .  A
C809        C814   1.413       .  A
C810        C811   1.416       .  A
C810        H819   1.073   1_556  S
C811        C812   1.426       .  A
C811        S815   1.804       .  S
C812        C813   1.412       .  A
C813        C814   1.407       .  A
C813        H820   1.083       .  S
S815        H818   1.407   1_455  S
S816        H817   1.400       .  S
C821        C822   1.412       .  A
C821        C826   1.419       .  A
C822        C823   1.408       .  A
C822        H831   1.081       .  S
C823        C824   1.413       .  A
C823        S827   1.801       .  S
C824        C825   1.404       .  A
C825        C826   1.404       .  A
C825        H832   1.083       .  S
C826        S828   1.799       .  S
S827        H830   1.397       .  S
S828        H829   1.408       .  S
C833        C834   1.405       .  A
C833        C838   1.413       .  A
C834        C835   1.390       .  A
C834        H843   1.083       .  S
C835        C836   1.408       .  A
C835        S839   1.805       .  S
C836        C837   1.403       .  A
C837        C838   1.399       .  A
C838        S840   1.802       .  S
S839        H842   1.404       .  S
S840        H841   1.408       .  S
N845        C849   1.364       .  A
N845       C1057   1.356       .  A
N845       C1035   1.447   1_556  S
C846       N1056   1.356       .  A
C846        C847   1.380       .  A
C846       C1047   1.474       .  S
C847        C848   1.367       .  A
C847        H850   1.082       .  S
C848       C1060   1.382       .  A
C848        H851   1.082       .  S
C849       C1059   1.381       .  A
C849       C1097   1.479       .  S
N852        C856   1.360       .  A
N852        C853   1.365       .  A
N852       C1231   1.456   1_554  S
C853        C854   1.381       .  A
C854        C855   1.358       .  A
C855        C856   1.380       .  A
C855        H858   1.082       .  S
C856       C1008   1.466       .  S
N859        C863   1.354       .  A
N859        C860   1.355       .  A
N859        C999   1.447   1_554  S
C860        C861   1.389       .  A
C860        C889   1.491       .  S
C861        C862   1.372       .  A
C861        H864   1.083   1_545  S
C862        C863   1.379       .  A
C862        H865   1.082       .  S
C863        C984   1.473       .  S
N866        C871   1.350       .  A
N866        C870   1.352       .  A
N866        H898   1.042       .  S
N867        C874   1.351       .  A
N867       C1086   1.351       .  A
N868        C873   1.359       .  A
N868        C872   1.358       .  A
N868        H899   1.041   1_554  S
N869        C876   1.351       .  A
N869       C1299   1.350       .  A
C870        C878   1.383       .  A
C870        C886   1.406       .  A
C871        C887   1.415   1_655  A
C871        C879   1.388       .  A
C872        C880   1.387       .  A
C872        C889   1.427       .  A
C873        C888   1.426       .  A
C873        C881   1.385       .  A
C874        C886   1.413       .  A
C874        C882   1.386       .  A
C875       N1078   1.352       .  A
C875       C1311   1.407       .  A
C875       C1094   1.384       .  A
C876       C1098   1.417   1_655  A
C877       N1291   1.356   1_545  A
C877        C888   1.417       .  A
C878        C879   1.382       .  A
C878        H890   1.082       .  S
C879        H891   1.078       .  S
C880        C881   1.375       .  A
C880        H892   1.077       .  S
C881        H893   1.082       .  S
C882        C883   1.375       .  A
C882        H894   1.081       .  S
C883       C1086   1.383       .  A
C883        H895   1.081       .  S
C884       C1307   1.372       .  A
C884        H896   1.081       .  S
C885       C1306   1.376   1_554  A
C885        H897   1.076       .  S
C886       C1060   1.478       .  S
C887       C1087   1.418       .  A
C888        C904   1.511       .  S
C889       C1297   1.401   1_544  A
N900        C904   1.366       .  A
N900        C901   1.365       .  A
C901        C902   1.382       .  A
C902        C903   1.376       .  A
C902        H905   1.082       .  S
C903        C904   1.384       .  A
C903        H906   1.082       .  S
C907        N925   1.361       .  A
C907        C944   1.451       .  S
C907        C996   1.488       .  S
N908        N925   1.331       .  A
N908        N930   1.315       .  A
N908       Co945   2.107       .  S
C909        N934   1.340       .  A
C909        C947   1.464       .  S
C909        H954   1.081       .  S
H910        C951   1.080       .  S
C911        N935   1.345       .  A
C911        C915   1.473       .  S
C911        H940   1.079       .  S
Co912       N930   2.056       .  S
Co912       N920   2.080       .  S
Co912       N952   2.095       .  S
Co912       N928   2.086       .  S
Co912      Cl956   2.457       .  S
N913        C951   1.339       .  A
N913        N920   1.320       .  A
N913       Co914   2.081       .  S
Co914       N917   2.103       .  S
Co914       N934   2.085       .  S
Co914       N921   2.070       .  S
Co914      Cl956   2.444       .  S
C915        N953   1.359       .  A
C915       C1023   1.514       .  S
N916        N923   1.324       .  A
N916        N946   1.326       .  A
N916       Co949   2.099       .  S
N917        N935   1.317       .  A
N917        N953   1.330       .  A
N918        C947   1.356       .  A
N918        N928   1.329       .  A
H919        C944   1.081       .  S
N920        N941   1.320       .  A
N921        N939   1.322       .  A
N921        N926   1.319       .  A
C922        N926   1.345       .  A
C922        C950   1.469       .  S
C922       C1011   1.470       .  S
N923        C938   1.333       .  A
N923       Co945   2.075       .  S
C924        N952   1.343       .  A
C924        C927   1.467       .  S
C924        H958   1.082       .  S
C927        N948   1.343       .  A
C927        C987   1.461       .  S
N928        N934   1.315       .  A
N929        C955   1.340       .  A
N929        N931   1.317       .  A
N929       Co945   2.084       .  S
N930        C944   1.335       .  A
N931        N959   1.331       .  A
N931       Co949   2.101       .  S
H932        C955   1.082       .  S
H933        C950   1.081       .  S
N935       Co949   2.097       .  S
N936        N948   1.319       .  A
N936        N952   1.321       .  A
N936       Co945   2.069       .  S
C937        N941   1.348       .  A
C937        C951   1.470       .  S
C937       C1044   1.477       .  S
C938        C957   1.454       .  S
C938        H942   1.082       .  S
N939        C950   1.343       .  A
N939       Co949   2.099       .  S
C943        N959   1.357       .  A
C943        C955   1.460       .  S
C943        C963   1.496       .  S
Co945      Cl956   2.438       .  S
N946        C957   1.352       .  A
C947       C1032   1.503       .  S
Co949      Cl956   2.466       .  S
C957        C972   1.472       .  S
C960        C961   1.405       .  A
C960        C965   1.418       .  A
C961        C962   1.408       .  A
C961        H970   1.083       .  S
C962        C963   1.416       .  A
C962        S966   1.795       .  S
C963        C964   1.405       .  A
C964        C965   1.401       .  A
C964        H971   1.083       .  S
C965        S967   1.806       .  S
S966        H969   1.406       .  S
C972        C973   1.402       .  A
C972        C977   1.413       .  A
C973       C1185   1.393       .  A
C973        H982   1.084       .  S
C974       C1184   1.394       .  A
C974        C975   1.412       .  A
C974        S978   1.802       .  S
C975        C976   1.402       .  A
C976       C1188   1.400   1_554  A
C977       C1187   1.399       .  A
C977        S979   1.801       .  S
S978        H981   1.405       .  S
S979        H980   1.408       .  S
C984        C985   1.401       .  A
C984        C989   1.422       .  A
C985        C986   1.398       .  A
C985        H994   1.084       .  S
C986        C987   1.411       .  A
C986        S990   1.804       .  S
C987        C988   1.395       .  A
C988        C989   1.394       .  A
C988        H995   1.085       .  S
C989        S991   1.810       .  S
S990        H993   1.406       .  S
S991        H992   1.393       .  S
C996        C997   1.400       .  A
C996       C1001   1.419       .  A
C997       C1209   1.400       .  A
C997       H1006   1.084       .  S
C998       C1208   1.402       .  A
C998        C999   1.416       .  A
C998       S1002   1.800       .  S
C999       C1211   1.401       .  A
C1000      C1210   1.400       .  A
C1000      C1001   1.406       .  A
C1000      H1007   1.082       .  S
C1001      S1003   1.808       .  S
S1002      H1005   1.404   1_556  S
S1003      H1004   1.407       .  S
C1008      C1009   1.401       .  A
C1008      C1013   1.411       .  A
C1009      C1010   1.396       .  A
C1009      H1018   1.083       .  S
C1010      C1011   1.409       .  A
C1010      S1014   1.796       .  S
C1011      C1012   1.402       .  A
C1012      C1013   1.389       .  A
C1012      H1019   1.084       .  S
C1013      S1015   1.808       .  S
S1014      H1017   1.407       .  S
S1015      H1016   1.403       .  S
C1020      N1063   1.456       .  S
C1020      C1021   1.405       .  A
C1020      C1025   1.412       .  A
C1021      C1022   1.411       .  A
C1021      H1030   1.080       .  S
C1022      C1023   1.424       .  A
C1022      S1026   1.799       .  S
C1023      C1024   1.410       .  A
C1024      C1025   1.407       .  A
C1024      H1031   1.083       .  S
C1025      S1238   1.795       .  S
S1026      H1029   1.408       .  S
S1027      C1236   1.800       .  S
S1027      H1028   1.403       .  S
C1032      C1033   1.411       .  A
C1032      C1037   1.419       .  A
C1033      C1034   1.403       .  A
C1033      H1042   1.081       .  S
C1034      C1035   1.410       .  A
C1034      S1038   1.797       .  S
C1035      C1036   1.406       .  A
C1036      C1037   1.404       .  A
C1036      H1043   1.083       .  S
C1037      S1039   1.800       .  S
S1038      H1041   1.399       .  S
S1039      H1040   1.408       .  S
C1044      C1045   1.407       .  A
C1044      C1049   1.411       .  A
C1045      C1046   1.394       .  A
C1045      H1054   1.083       .  S
C1046      C1047   1.408       .  A
C1046      S1050   1.803       .  S
C1047      C1048   1.402       .  A
C1048      C1049   1.395       .  A
C1048      H1266   1.077       .  S
C1049      S1051   1.803       .  S
S1050      H1053   1.406       .  S
S1051      H1052   1.408       .  S
H1055      C1259   1.078       .  S
N1056      C1060   1.364       .  A
N1056      C1246   1.449       .  S
C1057      C1058   1.380       .  A
C1057      C1258   1.477       .  S
C1058      C1059   1.367       .  A
C1058      H1061   1.082       .  S
C1059      H1062   1.082       .  S
N1063      C1067   1.362       .  A
N1063      C1064   1.369       .  A
C1064      C1065   1.382       .  A
C1065      C1066   1.357       .  A
C1066      C1067   1.381       .  A
C1066      H1069   1.082       .  S
C1067      C1219   1.473       .  S
N1070      C1074   1.354       .  A
N1070      C1071   1.353       .  A
N1070      C1210   1.444       .  S
C1071      C1072   1.388       .  A
C1071      C1100   1.488       .  S
C1072      C1073   1.373       .  A
C1072      H1075   1.082   1_545  S
C1073      C1074   1.379       .  A
C1073      H1076   1.082       .  S
C1074      C1195   1.473       .  S
N1077      C1082   1.349   1_556  A
N1077      C1081   1.350   1_556  A
N1077      H1109   1.044       .  S
N1078      C1085   1.352       .  A
N1079      C1084   1.357       .  A
N1079      C1083   1.356       .  A
N1079      H1110   1.042       .  S
N1080      C1087   1.350   1_655  A
N1080      C1510   1.351       .  A
C1081      C1089   1.384       .  A
C1081      C1097   1.406   1_554  A
C1082      C1098   1.413   1_655  A
C1082      C1090   1.386       .  A
C1083      C1091   1.387       .  A
C1083      C1100   1.424       .  A
C1084      C1099   1.422       .  A
C1084      C1092   1.386       .  A
C1085      C1097   1.416       .  A
C1085      C1093   1.387       .  A
C1086      C1522   1.402       .  A
C1088      N1502   1.353   1_545  A
C1088      C1099   1.411       .  A
C1089      C1090   1.383       .  A
C1089      H1101   1.082       .  S
C1090      H1102   1.078       .  S
C1091      C1092   1.377       .  A
C1091      H1103   1.079       .  S
C1092      H1104   1.082       .  S
C1093      C1094   1.375       .  A
C1093      H1105   1.082       .  S
C1094      H1106   1.082       .  S
C1095      C1518   1.370       .  A
C1095      H1107   1.079       .  S
C1096      C1517   1.377       .  A
C1096      H1108   1.075       .  S
C1099      C1115   1.503       .  S
C1100      C1508   1.398   1_545  A
N1111      C1115   1.363       .  A
N1111      C1112   1.363       .  A
C1112      C1113   1.382       .  A
C1113      C1114   1.375       .  A
C1113      H1116   1.082       .  S
C1114      C1115   1.384       .  A
C1114      H1117   1.082       .  S
C1118      N1136   1.361       .  A
C1118      C1155   1.458       .  S
C1118      C1207   1.499       .  S
N1119      N1136   1.331       .  A
N1119      N1141   1.315       .  A
N1119     Co1156   2.110       .  S
C1120      N1145   1.343       .  A
C1120      C1158   1.465       .  S
C1120      H1165   1.081       .  S
H1121      C1162   1.080       .  S
C1122      N1146   1.345       .  A
C1122      C1126   1.474       .  S
C1122      H1151   1.078       .  S
Co1123     N1141   2.070       .  S
Co1123     N1131   2.081       .  S
Co1123     N1163   2.092       .  S
Co1123     N1139   2.098       .  S
Co1123    Cl1167   2.458       .  S
N1124      C1162   1.343       .  A
N1124      N1131   1.321       .  A
N1124     Co1125   2.092       .  S
Co1125     N1128   2.090       .  S
Co1125     N1145   2.084       .  S
Co1125     N1132   2.068       .  S
Co1125    Cl1167   2.451       .  S
C1126      N1164   1.355       .  A
C1126      C1234   1.509       .  S
N1127      N1134   1.324       .  A
N1127      N1157   1.327       .  A
N1127     Co1160   2.105       .  S
N1128      N1146   1.317       .  A
N1128      N1164   1.327       .  A
N1129      C1158   1.358       .  A
N1129      N1139   1.330       .  A
H1130      C1155   1.081       .  S
N1131      N1152   1.319       .  A
N1132      N1150   1.324       .  A
N1132      N1137   1.319       .  A
C1133      N1137   1.344       .  A
C1133      C1161   1.470       .  S
C1133      C1222   1.474       .  S
N1134      C1149   1.333       .  A
N1134     Co1156   2.075       .  S
C1135      N1163   1.342       .  A
C1135      C1138   1.467       .  S
C1135      H1169   1.082       .  S
C1138      N1159   1.343       .  A
C1138      C1198   1.459       .  S
N1139      N1145   1.315       .  A
N1140      C1166   1.341       .  A
N1140      N1142   1.317       .  A
N1140     Co1156   2.089       .  S
N1141      C1155   1.339       .  A
N1142      N1170   1.333       .  A
N1142     Co1160   2.107       .  S
H1143      C1166   1.081       .  S
H1144      C1161   1.081       .  S
N1146     Co1160   2.100       .  S
N1147      N1159   1.318       .  A
N1147      N1163   1.321       .  A
N1147     Co1156   2.068       .  S
C1148      N1152   1.348       .  A
C1148      C1162   1.473       .  S
C1148      C1255   1.482       .  S
C1149      C1168   1.455       .  S
C1149      H1153   1.082       .  S
N1150      C1161   1.344       .  A
N1150     Co1160   2.109       .  S
C1154      N1170   1.360       .  A
C1154      C1166   1.462       .  S
C1154      C1174   1.504       .  S
Co1156    Cl1167   2.438       .  S
N1157      C1168   1.354       .  A
C1158      C1243   1.508       .  S
Co1160    Cl1167   2.464       .  S
C1168      C1183   1.477       .  S
C1171      C1172   1.405       .  A
C1171      C1176   1.419       .  A
C1172      C1173   1.410       .  A
C1172      H1181   1.084       .  S
C1173      C1174   1.417       .  A
C1173      S1177   1.792       .  S
C1174      C1175   1.406       .  A
C1175      C1176   1.404       .  A
C1175      H1182   1.083       .  S
C1176      S1178   1.806       .  S
S1177      H1180   1.405       .  S
C1183      C1184   1.404   1_556  A
C1183      C1188   1.414       .  A
C1184      H1193   1.084       .  S
C1185      C1186   1.411       .  A
C1185      S1189   1.800       .  S
C1186      C1187   1.403       .  A
C1188      S1190   1.800       .  S
S1189      H1192   1.405       .  S
S1190      H1191   1.407       .  S
C1195      C1196   1.403       .  A
C1195      C1200   1.421       .  A
C1196      C1197   1.398       .  A
C1196      H1205   1.084       .  S
C1197      C1198   1.410       .  A
C1197      S1201   1.805       .  S
C1198      C1199   1.395       .  A
C1199      C1200   1.392       .  A
C1199      H1206   1.085       .  S
C1200      S1202   1.809       .  S
S1201      H1204   1.406       .  S
S1202      H1203   1.393       .  S
C1207      C1208   1.403       .  A
C1207      C1212   1.423       .  A
C1208      H1217   1.084       .  S
C1209      C1210   1.418       .  A
C1209      S1213   1.800       .  S
C1211      C1212   1.410       .  A
C1211      H1218   1.081   1_556  S
C1212      S1214   1.807       .  S
S1213      H1216   1.404       .  S
S1214      H1215   1.407       .  S
C1219      C1220   1.401       .  A
C1219      C1224   1.413       .  A
C1220      C1221   1.395       .  A
C1220      H1229   1.077       .  S
C1221      C1222   1.407       .  A
C1221      S1225   1.794       .  S
C1222      C1223   1.403       .  A
C1223      C1224   1.393       .  A
C1223      H1230   1.084       .  S
C1224      S1226   1.806       .  S
S1225      H1228   1.407       .  S
S1226      H1227   1.405       .  S
C1231      C1232   1.403       .  A
C1231      C1236   1.414       .  A
C1232      C1233   1.411       .  A
C1232      H1241   1.075       .  S
C1233      C1234   1.423       .  A
C1233      S1237   1.803       .  S
C1234      C1235   1.409       .  A
C1235      C1236   1.404       .  A
C1235      H1242   1.083       .  S
S1237      H1240   1.408       .  S
S1238      H1239   1.400       .  S
C1243      C1244   1.413       .  A
C1243      C1248   1.419       .  A
C1244      C1245   1.408       .  A
C1244      H1253   1.081       .  S
C1245      C1246   1.412       .  A
C1245      S1249   1.801       .  S
C1246      C1247   1.404       .  A
C1247      C1248   1.404       .  A
C1247      H1254   1.083       .  S
C1248      S1250   1.799       .  S
S1249      H1252   1.399       .  S
S1250      H1251   1.407       .  S
C1255      C1256   1.407       .  A
C1255      C1260   1.413       .  A
C1256      C1257   1.393       .  A
C1256      H1265   1.083       .  S
C1257      C1258   1.407       .  A
C1257      S1261   1.804       .  S
C1258      C1259   1.403       .  A
C1259      C1260   1.399       .  A
C1260      S1262   1.802       .  S
S1261      H1264   1.406       .  S
S1262      H1263   1.407       .  S
N1267      C1271   1.363       .  A
N1267      C1479   1.356       .  A
N1267      C1457   1.448   1_556  S
C1268      N1478   1.353       .  A
C1268      C1269   1.379       .  A
C1268      C1469   1.467       .  S
C1269      C1270   1.366       .  A
C1269      H1272   1.082       .  S
C1270      C1482   1.382       .  A
C1270      H1273   1.082       .  S
C1271      C1481   1.381       .  A
C1271      C1519   1.475       .  S
N1274      C1278   1.356       .  A
N1274      C1275   1.369       .  A
N1274      C1653   1.455   1_554  S
C1275      C1276   1.389       .  A
C1276      C1277   1.361       .  A
C1277      C1278   1.374       .  A
C1277      H1280   1.083       .  S
C1278      C1430   1.462       .  S
N1281      C1285   1.355       .  A
N1281      C1282   1.358       .  A
N1281      C1421   1.449   1_554  S
C1282      C1283   1.389       .  A
C1282      C1311   1.493   1_554  S
C1283      C1284   1.370       .  A
C1283      H1286   1.082       .  S
C1284      C1285   1.378       .  A
C1284      H1287   1.082       .  S
C1285      C1406   1.472       .  S
N1288      C1293   1.349       .  A
N1288      C1292   1.351       .  A
N1288      H1320   1.044       .  S
N1289      C1296   1.349       .  A
N1289      C1508   1.349       .  A
N1290      C1295   1.359       .  A
N1290      C1294   1.356       .  A
N1290      H1321   1.042   1_554  S
N1291      C1298   1.355       .  A
C1292      C1300   1.382       .  A
C1292      C1308   1.401       .  A
C1293      C1309   1.413       .  A
C1293      C1301   1.390       .  A
C1294      C1302   1.389       .  A
C1294      C1311   1.428   1_554  A
C1295      C1310   1.422       .  A
C1295      C1303   1.383       .  A
C1296      C1308   1.409       .  A
C1296      C1304   1.386       .  A
C1297      N1500   1.350       .  A
C1297      C1516   1.383       .  A
C1298      C1520   1.423       .  A
C1299      C1310   1.407       .  A
C1300      C1301   1.380       .  A
C1300      H1312   1.082       .  S
C1301      H1313   1.081       .  S
C1302      C1303   1.380       .  A
C1302      H1314   1.078       .  S
C1303      H1315   1.082       .  S
C1304      C1305   1.373       .  A
C1304      H1316   1.081       .  S
C1305      C1508   1.382       .  A
C1305      H1317   1.080   1_565  S
C1306      H1318   1.083       .  S
C1307      H1319   1.074       .  S
C1308      C1482   1.471       .  S
C1309      C1509   1.418       .  A
C1310      C1326   1.508       .  S
N1322      C1326   1.363       .  A
N1322      C1323   1.364       .  A
C1323      C1324   1.383       .  A
C1324      C1325   1.380       .  A
C1324      H1327   1.082       .  S
C1325      C1326   1.384       .  A
C1325      H1328   1.082       .  S
C1329      N1347   1.359       .  A
C1329      C1366   1.460       .  S
C1329      C1418   1.497       .  S
N1330      N1347   1.331       .  A
N1330      N1352   1.316       .  A
N1330     Co1367   2.104       .  S
C1331      N1356   1.344       .  A
C1331      C1369   1.468       .  S
C1331      H1376   1.081       .  S
H1332      C1373   1.079       .  S
C1333      N1357   1.349       .  A
C1333      C1337   1.473       .  S
C1333      H1362   1.081       .  S
Co1334     N1352   2.080       .  S
Co1334     N1342   2.075       .  S
Co1334     N1374   2.089       .  S
Co1334     N1350   2.092       .  S
Co1334    Cl1378   2.453       .  S
N1335      C1373   1.339       .  A
N1335      N1342   1.321       .  A
N1335     Co1336   2.083       .  S
Co1336     N1339   2.097       .  S
Co1336     N1356   2.090       .  S
Co1336     N1343   2.081       .  S
Co1336    Cl1378   2.451       .  S
C1337      N1375   1.354       .  A
C1337      C1445   1.507       .  S
N1338      N1345   1.323       .  A
N1338      N1368   1.322       .  A
N1338     Co1371   2.084       .  S
N1339      N1357   1.318       .  A
N1339      N1375   1.328       .  A
N1340      C1369   1.355       .  A
N1340      N1350   1.328       .  A
H1341      C1366   1.081       .  S
N1342      N1363   1.319       .  A
N1343      N1361   1.321       .  A
N1343      N1348   1.321       .  A
C1344      N1348   1.349       .  A
C1344      C1372   1.457       .  S
C1344      C1433   1.466       .  S
N1345      C1360   1.335       .  A
N1345     Co1367   2.076       .  S
C1346      N1374   1.342       .  A
C1346      C1349   1.465       .  S
C1346      H1380   1.082       .  S
C1349      N1370   1.345       .  A
C1349      C1409   1.461       .  S
N1350      N1356   1.316       .  A
N1351      C1377   1.339       .  A
N1351      N1353   1.317       .  A
N1351     Co1367   2.080       .  S
N1352      C1366   1.341       .  A
N1353      N1381   1.329       .  A
N1353     Co1371   2.092       .  S
H1354      C1377   1.082       .  S
H1355      C1372   1.081       .  S
N1357     Co1371   2.104       .  S
N1358      N1370   1.320       .  A
N1358      N1374   1.320       .  A
N1358     Co1367   2.076       .  S
C1359      N1363   1.348       .  A
C1359      C1373   1.467       .  S
C1359      C1466   1.474       .  S
C1360      C1379   1.456       .  S
C1360      H1364   1.082       .  S
N1361      C1372   1.337       .  A
N1361     Co1371   2.075       .  S
C1365      N1381   1.354       .  A
C1365      C1377   1.459       .  S
C1365      C1385   1.485       .  S
Co1367    Cl1378   2.444       .  S
N1368      C1379   1.349       .  A
C1369      C1454   1.506       .  S
Co1371    Cl1378   2.457       .  S
C1379      C1394   1.469       .  S
C1382      C1383   1.406       .  A
C1382      C1387   1.417       .  A
C1383      C1384   1.406       .  A
C1383      H1392   1.083       .  S
C1384      C1385   1.415       .  A
C1384      S1388   1.803       .  S
C1385      C1386   1.403       .  A
C1386      C1387   1.398       .  A
C1386      H1393   1.084       .  S
C1387      S1389   1.807       .  S
S1388      H1391   1.406       .  S
C1394      C1395   1.402       .  A
C1394      C1399   1.414       .  A
C1395      C1607   1.393       .  A
C1395      H1404   1.084       .  S
C1396      C1606   1.394       .  A
C1396      C1397   1.414       .  A
C1396      S1400   1.803       .  S
C1397      C1398   1.401       .  A
C1398      C1610   1.395   1_554  A
C1399      C1609   1.395       .  A
C1399      S1401   1.802       .  S
S1400      H1403   1.402       .  S
S1401      H1402   1.408       .  S
C1406      C1407   1.402       .  A
C1406      C1411   1.422       .  A
C1407      C1408   1.398       .  A
C1407      H1416   1.084       .  S
C1408      C1409   1.410       .  A
C1408      S1412   1.804       .  S
C1409      C1410   1.395       .  A
C1410      C1411   1.393       .  A
C1410      H1417   1.085       .  S
C1411      S1413   1.811       .  S
S1412      H1415   1.406       .  S
S1413      H1414   1.392       .  S
C1418      C1419   1.404       .  A
C1418      C1423   1.421       .  A
C1419      C1631   1.404       .  A
C1419      H1428   1.084       .  S
C1420      C1630   1.403       .  A
C1420      C1421   1.418       .  A
C1420      S1424   1.799       .  S
C1421      C1633   1.402       .  A
C1422      C1632   1.402       .  A
C1422      C1423   1.407       .  A
C1422      H1429   1.083       .  S
C1423      S1425   1.802       .  S
S1424      H1427   1.405   1_556  S
S1425      H1426   1.407       .  S
C1430      C1431   1.399       .  A
C1430      C1435   1.404       .  A
C1431      C1432   1.390       .  A
C1431      H1440   1.085       .  S
C1432      C1433   1.414       .  A
C1432      S1436   1.802       .  S
C1433      C1434   1.405       .  A
C1434      C1435   1.396       .  A
C1434      H1441   1.084       .  S
C1435      S1437   1.802       .  S
S1436      H1439   1.408       .  S
S1437      H1438   1.404   1_554  S
C1442      N1485   1.456       .  S
C1442      C1443   1.410       .  A
C1442      C1447   1.413       .  A
C1443      C1444   1.409       .  A
C1443      H1452   1.080       .  S
C1444      C1445   1.418       .  A
C1444      S1448   1.801       .  S
C1445      C1446   1.410       .  A
C1446      C1447   1.409       .  A
C1446      H1453   1.083       .  S
C1447      S1660   1.798       .  S
S1448      H1451   1.407       .  S
S1449      C1658   1.797       .  S
S1449      H1450   1.403       .  S
C1454      C1455   1.411       .  A
C1454      C1459   1.421       .  A
C1455      C1456   1.406       .  A
C1455      H1464   1.081       .  S
C1456      C1457   1.411       .  A
C1456      S1460   1.797       .  S
C1457      C1458   1.404       .  A
C1458      C1459   1.404       .  A
C1458      H1465   1.083       .  S
C1459      S1461   1.800       .  S
S1460      H1463   1.401   1_554  S
S1461      H1462   1.408       .  S
C1466      C1467   1.405       .  A
C1466      C1471   1.412       .  A
C1467      C1468   1.390       .  A
C1467      H1476   1.083       .  S
C1468      C1469   1.407       .  A
C1468      S1472   1.805       .  S
C1469      C1470   1.402       .  A
C1470      C1471   1.396       .  A
C1470      H1688   1.081       .  S
C1471      S1473   1.801       .  S
S1472      H1475   1.404       .  S
S1473      H1474   1.408       .  S
H1477      C1681   1.079       .  S
N1478      C1482   1.360       .  A
N1478      C1668   1.446       .  S
C1479      C1480   1.381       .  A
C1479      C1680   1.474       .  S
C1480      C1481   1.366       .  A
C1480      H1483   1.082       .  S
C1481      H1484   1.082       .  S
N1485      C1489   1.356       .  A
N1485      C1486   1.371       .  A
C1486      C1487   1.389       .  A
C1487      C1488   1.361       .  A
C1488      C1489   1.374       .  A
C1488      H1491   1.083       .  S
C1489      C1641   1.464       .  S
N1492      C1496   1.354       .  A
N1492      C1493   1.356       .  A
N1492      C1632   1.448       .  S
C1493      C1494   1.390       .  A
C1493      C1522   1.487       .  S
C1494      C1495   1.371       .  A
C1494      H1497   1.083       .  S
C1495      C1496   1.377       .  A
C1495      H1498   1.082       .  S
C1496      C1617   1.467       .  S
N1499      C1504   1.348       .  A
N1499      C1503   1.352       .  A
N1499      H1531   1.043   1_554  S
N1500      C1507   1.350       .  A
N1501      C1506   1.359       .  A
N1501      C1505   1.355       .  A
N1501      H1532   1.039       .  S
N1502      C1509   1.353       .  A
C1503      C1511   1.382       .  A
C1503      C1519   1.402   1_554  A
C1504      C1520   1.412       .  A
C1504      C1512   1.389       .  A
C1505      C1513   1.388       .  A
C1505      C1522   1.424       .  A
C1506      C1521   1.418       .  A
C1506      C1514   1.383       .  A
C1507      C1519   1.411       .  A
C1507      C1515   1.386       .  A
C1510      C1521   1.406       .  A
C1511      C1512   1.379       .  A
C1511      H1523   1.082       .  S
C1512      H1524   1.081       .  S
C1513      C1514   1.376       .  A
C1513      H1525   1.077       .  S
C1514      H1526   1.082       .  S
C1515      C1516   1.373       .  A
C1515      H1527   1.081       .  S
C1516      H1528   1.082       .  S
C1517      H1529   1.082       .  S
C1518      H1530   1.071       .  S
C1521      C1537   1.504       .  S
N1533      C1537   1.362       .  A
N1533      C1534   1.364       .  A
C1534      C1535   1.382       .  A
C1535      C1536   1.377       .  A
C1535      H1538   1.082       .  S
C1536      C1537   1.384       .  A
C1536      H1539   1.082       .  S
C1540      N1558   1.360       .  A
C1540      C1577   1.459       .  S
C1540      C1629   1.498       .  S
N1541      N1558   1.331       .  A
N1541      N1563   1.315       .  A
N1541     Co1578   2.107       .  S
C1542      N1567   1.343       .  A
C1542      C1580   1.466       .  S
C1542      H1587   1.081       .  S
H1543      C1584   1.080       .  S
C1544      N1568   1.349       .  A
C1544      C1548   1.471       .  S
C1544      H1573   1.081       .  S
Co1545     N1563   2.076       .  S
Co1545     N1553   2.064       .  S
Co1545     N1585   2.075       .  S
Co1545     N1561   2.088       .  S
Co1545    Cl1589   2.449       .  S
N1546      C1584   1.344       .  A
N1546      N1553   1.320       .  A
N1546     Co1547   2.099       .  S
Co1547     N1550   2.082       .  S
Co1547     N1567   2.081       .  S
Co1547     N1554   2.085       .  S
Co1547    Cl1589   2.452       .  S
C1548      N1586   1.350       .  A
C1548      C1656   1.497       .  S
N1549      N1556   1.323       .  A
N1549      N1579   1.323       .  A
N1549     Co1582   2.085       .  S
N1550      N1568   1.319       .  A
N1550      N1586   1.325       .  A
N1551      C1580   1.354       .  A
N1551      N1561   1.326       .  A
H1552      C1577   1.081       .  S
N1553      N1574   1.317       .  A
N1554      N1572   1.322       .  A
N1554      N1559   1.322       .  A
C1555      N1559   1.350       .  A
C1555      C1583   1.459       .  S
C1555      C1644   1.474       .  S
N1556      C1571   1.335       .  A
N1556     Co1578   2.081       .  S
C1557      N1585   1.337       .  A
C1557      C1560   1.463       .  S
C1557      H1591   1.082       .  S
C1560      N1581   1.347       .  A
C1560      C1620   1.459       .  S
N1561      N1567   1.315       .  A
N1562      C1588   1.341       .  A
N1562      N1564   1.317       .  A
N1562     Co1578   2.082       .  S
N1563      C1577   1.341       .  A
N1564      N1592   1.331       .  A
N1564     Co1582   2.103       .  S
H1565      C1588   1.082       .  S
H1566      C1583   1.080       .  S
N1568     Co1582   2.107       .  S
N1569      N1581   1.320       .  A
N1569      N1585   1.319       .  A
N1569     Co1578   2.077       .  S
C1570      N1574   1.344       .  A
C1570      C1584   1.473       .  S
C1570      C1677   1.476       .  S
C1571      C1590   1.457       .  S
C1571      H1575   1.082       .  S
N1572      C1583   1.337       .  A
N1572     Co1582   2.080       .  S
C1576      N1592   1.356       .  A
C1576      C1588   1.459       .  S
C1576      C1596   1.491       .  S
Co1578    Cl1589   2.446       .  S
N1579      C1590   1.349       .  A
C1580      C1665   1.502       .  S
Co1582    Cl1589   2.453       .  S
C1590      C1605   1.470       .  S
C1593      C1594   1.407       .  A
C1593      C1598   1.418       .  A
C1594      C1595   1.409       .  A
C1594      H1603   1.083       .  S
C1595      C1596   1.415       .  A
C1595      S1599   1.803       .  S
C1596      C1597   1.404       .  A
C1597      C1598   1.401       .  A
C1597      H1604   1.084       .  S
C1598      S1600   1.806       .  S
S1599      H1602   1.406       .  S
C1605      C1606   1.401   1_556  A
C1605      C1610   1.413       .  A
C1606      H1615   1.084       .  S
C1607      C1608   1.412       .  A
C1607      S1611   1.803       .  S
C1608      C1609   1.400       .  A
C1610      S1612   1.801       .  S
S1611      H1614   1.403       .  S
S1612      H1613   1.407       .  S
C1617      C1618   1.401       .  A
C1617      C1622   1.421       .  A
C1618      C1619   1.397       .  A
C1618      H1627   1.084       .  S
C1619      C1620   1.409       .  A
C1619      S1623   1.804       .  S
C1620      C1621   1.396       .  A
C1621      C1622   1.390       .  A
C1621      H1628   1.085       .  S
C1622      S1624   1.812       .  S
S1623      H1626   1.406       .  S
S1624      H1625   1.391       .  S
C1629      C1630   1.403       .  A
C1629      C1634   1.423       .  A
C1630      H1639   1.084       .  S
C1631      C1632   1.417       .  A
C1631      S1635   1.801       .  S
C1633      C1634   1.409       .  A
C1633      H1640   1.083   1_556  S
C1634      S1636   1.802       .  S
S1635      H1638   1.404       .  S
S1636      H1637   1.407       .  S
C1641      C1642   1.399       .  A
C1641      C1646   1.403       .  A
C1642      C1643   1.396       .  A
C1642      H1651   1.083       .  S
C1643      C1644   1.416       .  A
C1643      S1647   1.807       .  S
C1644      C1645   1.407       .  A
C1645      C1646   1.396       .  A
C1645      H1652   1.084       .  S
C1646      S1648   1.802       .  S
S1647      H1650   1.407       .  S
S1648      H1649   1.405       .  S
C1653      C1654   1.411   1_556  A
C1653      C1658   1.413       .  A
C1654      C1655   1.411   1_554  A
C1654      H1663   1.079       .  S
C1655      C1656   1.412       .  A
C1655      S1659   1.808   1_556  S
C1656      C1657   1.407       .  A
C1657      C1658   1.405       .  A
C1657      H1664   1.084       .  S
S1659      H1662   1.407       .  S
S1660      H1661   1.404       .  S
C1665      C1666   1.412       .  A
C1665      C1670   1.419       .  A
C1666      C1667   1.406       .  A
C1666      H1675   1.081       .  S
C1667      C1668   1.411       .  A
C1667      S1671   1.798       .  S
C1668      C1669   1.403       .  A
C1669      C1670   1.400       .  A
C1669      H1676   1.082       .  S
C1670      S1672   1.800       .  S
S1671      H1674   1.401       .  S
S1672      H1673   1.407       .  S
C1677      C1678   1.406       .  A
C1677      C1682   1.410       .  A
C1678      C1679   1.391       .  A
C1678      H1687   1.083       .  S
C1679      C1680   1.408       .  A
C1679      S1683   1.804       .  S
C1680      C1681   1.404       .  A
C1681      C1682   1.397       .  A
C1682      S1684   1.800       .  S
S1683      H1686   1.407       .  S
S1684      H1685   1.407       .  S
