geometry optimzed in LAMMPS
_audit_creation_date              2020-11-30 
_audit_creation_method            'lammps2cif' 
_symmetry_space_group_name_H-M    'P1' 
_symmetry_Int_Tables_number       1 
_symmetry_cell_setting            triclinic 
loop_ 
_symmetry_equiv_pos_as_xyz 
  x,y,z 
_cell_length_a                    37.39626271 
_cell_length_b                    37.41404727862388 
_cell_length_c                    112.90993780476478 
_cell_angle_alpha                 90.09081976724453 
_cell_angle_beta                  89.96964586935812 
_cell_angle_gamma                 120.72120901241597 
loop_ 
_atom_site_label 
_atom_site_type_symbol 
_atom_site_fract_x 
_atom_site_fract_y 
_atom_site_fract_z 
_atom_site_charge 
N1          N  0.10567093  0.57515635  0.42579107    -0.26400
N2          N  0.11020934  0.55827306  0.43549367    -0.34300
C3          C  0.11148838  0.58073170  0.44492368     0.01900
C4          C  0.10768566  0.61378291  0.44104585     0.07900
C5          C  0.10399866  0.60910286  0.42880530    -0.05200
H6          H  0.11289795  0.57201505  0.45395007     0.08600
H7          H  0.09926787  0.62818401  0.42255526     0.09800
Cu8        Cu  0.11182696  0.50403548  0.43567205     0.44200
Cu9        Cu  0.09787275  0.54771580  0.40927038     0.42000
Cu10       Cu  0.10057559  0.45006605  0.40845715     0.43900
N11         N  0.11701473  0.45188619  0.43451922    -0.33800
N12         N  0.11392865  0.43206645  0.42454873    -0.28100
C13         C  0.12188469  0.40142900  0.42682781    -0.04200
C14         C  0.13034177  0.40201587  0.43887349     0.08000
C15         C  0.12669767  0.43452096  0.44338070     0.01800
H16         H  0.12281649  0.38139449  0.42008819     0.09500
H17         H  0.13140167  0.44554261  0.45242215     0.08600
N18         N  0.08626098  0.47549211  0.39406822    -0.35300
N19         N  0.08565267  0.51054272  0.39438296    -0.27500
C20         C  0.07523815  0.51764513  0.38361608    -0.02700
C21         C  0.06872633  0.48553374  0.37610592     0.05900
C22         C  0.07618596  0.45947135  0.38306779     0.04000
H23         H  0.07234463  0.54421946  0.38146947     0.09100
H24         H  0.07535945  0.43136010  0.38033381     0.07900
N25         N  0.57903105  0.98123806  0.09270267    -0.26400
N26         N  0.55966051  0.97886176  0.10269964    -0.34300
C27         C  0.58483697  0.98350032  0.11181921     0.01900
C28         C  0.62211798  0.98917075  0.10736847     0.07900
C29         C  0.61690550  0.98727467  0.09515318    -0.05200
H30         H  0.57662486  0.98330009  0.12100786     0.08600
H31         H  0.63859241  0.98977059  0.08842840     0.09800
Cu32       Cu  0.49956707  0.96883190  0.10319775     0.44200
Cu33       Cu  0.55351342  0.97788426  0.07620565     0.42000
Cu34       Cu  0.44853663  0.95970531  0.07478869     0.43900
N35         N  0.43786414  0.95324241  0.10135807    -0.33800
N36         N  0.41910139  0.94916618  0.09110640    -0.28100
C37         C  0.37889500  0.93657678  0.09312543    -0.04200
C38         C  0.37170507  0.93235291  0.10525938     0.08000
C39         C  0.41016757  0.94359184  0.11014973     0.01800
H40         H  0.35642766  0.93013662  0.08619522     0.09500
H41         H  0.41800813  0.94487662  0.11939807     0.08600
N42         N  0.48609113  0.97114825  0.06003381    -0.35300
N43         N  0.52424932  0.97764223  0.06065093    -0.27500
C44         C  0.54035709  0.98392787  0.04970086    -0.02700
C45         C  0.51103205  0.98139841  0.04172420     0.05900
C46         C  0.47687997  0.97304547  0.04861694     0.04000
H47         H  0.57089618  0.98896622  0.04774630     0.09100
H48         H  0.44752427  0.96882349  0.04558571     0.07900
N49         N  0.02663263  0.54141907  0.23731821    -0.26400
N50         N  0.02528042  0.52273740  0.22726039    -0.34300
C51         C  0.02056981  0.54337674  0.21826301     0.01900
C52         C  0.01913907  0.57702301  0.22282545     0.07900
C53         C  0.02310585  0.57477849  0.23498369    -0.05200
H54         H  0.01925327  0.53496160  0.20903691     0.08600
H55         H  0.02309606  0.59549254  0.24167041     0.09800
Cu56       Cu  0.02954449  0.46985118  0.22621776     0.44200
Cu57       Cu  0.03231204  0.51911358  0.25356225     0.42000
Cu58       Cu  0.02941381  0.41904724  0.25329491     0.43900
N59         N  0.02637393  0.41306334  0.22673881    -0.33800
N60         N  0.02545642  0.39360410  0.23658714    -0.28100
C61         C  0.01882476  0.35565810  0.23376253    -0.04200
C62         C  0.01498479  0.35094686  0.22153819     0.08000
C63         C  0.02048590  0.38830864  0.21742810     0.01800
H64         H  0.01491744  0.33245549  0.24016824     0.09500
H65         H  0.01921719  0.39678598  0.20835970     0.08600
N66         N  0.03209797  0.45181155  0.26853369    -0.35300
N67         N  0.03340429  0.48782050  0.26856219    -0.27500
C68         C  0.03433762  0.50001239  0.27981359    -0.02700
C69         C  0.03332263  0.47023281  0.28730975     0.05900
C70         C  0.03216633  0.44023894  0.27980700     0.04000
H71         H  0.03613823  0.52884693  0.28227185     0.09100
H72         H  0.03085358  0.41173551  0.28233015     0.07900
C73         C  0.92658482  0.03857705  0.16320905     0.81100
N74         N  0.94068754  0.07116057  0.17089283    -0.77200
C75         C  0.92144548  0.09358935  0.17171409     0.83500
N76         N  0.88774138  0.08298643  0.16482627    -0.77200
C77         C  0.87330882  0.05089123  0.15705077     0.83600
N78         N  0.89311702  0.02894825  0.15620802    -0.78900
C79         C  0.06025268  0.86165020  0.16007751     0.81100
N80         N  0.09033754  0.86959510  0.15195432    -0.77200
C81         C  0.10744447  0.84517048  0.15120347     0.83500
N82         N  0.09363451  0.81215141  0.15860955    -0.77200
C83         C  0.06396400  0.80386176  0.16685573     0.83600
N84         N  0.04766870  0.82900907  0.16762132    -0.78900
N85         N  0.60455452  0.99376008  0.90199849    -0.26400
N86         N  0.58924005  0.99892467  0.89203210    -0.34300
C87         C  0.61138348  0.99749565  0.88287509     0.01900
C88         C  0.64221772  0.99102375  0.88724352     0.07900
C89         C  0.63700349  0.98896590  0.89943106    -0.05200
H90         H  0.60602345  0.00213991  0.87375122     0.08600
H91         H  0.65536667  0.98430165  0.90596644     0.09800
Cu92       Cu  0.54038125  0.00983432  0.89109993     0.44200
Cu93       Cu  0.58123342  0.99470514  0.91858494     0.42000
Cu94       Cu  0.49633358  0.01597876  0.91860969     0.43900
N95         N  0.49416273  0.02453998  0.89224327    -0.33800
N96         N  0.47826529  0.02736726  0.90239960    -0.28100
C97         C  0.45037559  0.03911876  0.90027174    -0.04200
C98         C  0.44860799  0.04395064  0.88814942     0.08000
C99         C  0.47672449  0.03421512  0.88335762     0.01800
H100        H  0.43259445  0.04346611  0.90707903     0.09500
H101        H  0.48476371  0.03510711  0.87411620     0.08600
N102        N  0.52082873  0.00529011  0.93371871    -0.35300
N103        N  0.55188733  0.99805577  0.93377492    -0.27500
C104        C  0.56069790  0.99373135  0.94503802    -0.02700
C105        C  0.53368570  0.99823312  0.95251662     0.05900
C106        C  0.50891153  0.00552559  0.94491574     0.04000
H107        H  0.58556856  0.98845809  0.94744765     0.09100
H108        H  0.48383597  0.01064988  0.94725704     0.07900
C109        C  0.85122003  0.96562550  0.83740891     0.81100
N110        N  0.83409647  0.93208711  0.83013060    -0.77200
C111        C  0.85760743  0.92554444  0.82231487     0.83500
N112        N  0.89910179  0.95322139  0.82177741    -0.77200
C113        C  0.91718287  0.98671389  0.82916669     0.83600
N114        N  0.89290609  0.99294373  0.83691166    -0.78900
C115        C  0.29691669  0.19131860  0.82496323     0.81100
N116        N  0.31474856  0.17767787  0.83281317    -0.77200
C117        C  0.29126802  0.14522506  0.84009273     0.83500
N118        N  0.24916950  0.12633519  0.83959772    -0.77200
C119        C  0.23064742  0.14024462  0.83201985     0.83600
N120        N  0.25476864  0.17244706  0.82461848    -0.78900
N121        N  0.53531517  0.46910435  0.75826628    -0.26400
N122        N  0.55752240  0.48603404  0.76793327    -0.34300
C123        C  0.53729355  0.46202645  0.77728218     0.01900
C124        C  0.50009316  0.42835512  0.77338075     0.07900
C125        C  0.50018154  0.43380305  0.76122299    -0.05200
H126        H  0.54912724  0.46899825  0.78622431     0.08600
H127        H  0.47601605  0.41424120  0.75499798     0.09800
Cu128      Cu  0.61253235  0.54275188  0.76834862     0.44200
Cu129      Cu  0.55326540  0.49609700  0.74166861     0.42000
Cu130      Cu  0.64997048  0.59703208  0.74093903     0.43900
N131        N  0.66239818  0.60293888  0.76720624    -0.33800
N132        N  0.67646259  0.62303801  0.75710568    -0.28100
C133        C  0.70619612  0.66255781  0.75938486    -0.04200
C134        C  0.71086331  0.66779494  0.77157725     0.08000
C135        C  0.68264832  0.62906695  0.77619909     0.01800
H136        H  0.72211706  0.68576418  0.75260710     0.09500
H137        H  0.67549193  0.62093791  0.78543708     0.08600
N138        N  0.61364940  0.56743658  0.72626668    -0.35300
N139        N  0.57864162  0.53102729  0.72645933    -0.27500
C140        C  0.56303487  0.52148444  0.71541727    -0.02700
C141        C  0.58928417  0.55364527  0.70794142     0.05900
C142        C  0.62113328  0.58207353  0.71514555     0.04000
H143        H  0.53452010  0.49331545  0.71304550     0.09100
H144        H  0.64835475  0.61098571  0.71251999     0.07900
N145        N  0.54987417  0.46620446  0.57066190    -0.26400
N146        N  0.57432252  0.47724608  0.56128471    -0.34300
C147        C  0.55304271  0.45256089  0.55214743     0.01900
C148        C  0.51305233  0.42447090  0.55591410     0.07900
C149        C  0.51218739  0.43399905  0.56774761    -0.05200
H150        H  0.56554722  0.45577867  0.54333093     0.08600
H151        H  0.48568826  0.42026233  0.57363274     0.09800
Cu152      Cu  0.63412981  0.52765324  0.56085696     0.44200
Cu153      Cu  0.56851770  0.49833572  0.58650805     0.42000
Cu154      Cu  0.67366350  0.58973660  0.58720820     0.43900
N155        N  0.69229467  0.58040263  0.56190875    -0.33800
N156        N  0.70728482  0.60305263  0.57160567    -0.28100
C157        C  0.74577515  0.63502559  0.56935616    -0.04200
C158        C  0.75523340  0.63260638  0.55761730     0.08000
C159        C  0.72057437  0.59738841  0.55320639     0.01800
H160        H  0.76510537  0.65864263  0.57574854     0.09500
H161        H  0.71625942  0.58447184  0.54439429     0.08600
N162        N  0.63265480  0.56955561  0.60136995    -0.35300
N163        N  0.59483341  0.53646440  0.60108404    -0.27500
C164        C  0.57739458  0.53092101  0.61182178    -0.02700
C165        C  0.60552713  0.56190322  0.61933596     0.05900
C166        C  0.64019418  0.58603257  0.61231109     0.04000
H167        H  0.54700012  0.50506137  0.61405761     0.09100
H168        H  0.66913636  0.61329032  0.61485669     0.07900
C169        C  0.27015950  0.24260677  0.50293250     0.81100
N170        N  0.24978292  0.20043411  0.50317341    -0.77200
C171        C  0.21718445  0.17738147  0.49577995     0.83500
N172        N  0.20511824  0.19716723  0.48805097    -0.77200
C173        C  0.22574641  0.23942109  0.48757692     0.83600
N174        N  0.25805332  0.26166072  0.49505711    -0.78900
C175        C  0.05726948  0.79909268  0.49484486     0.81100
N176        N  0.02608053  0.78008967  0.50288032    -0.77200
C177        C  0.01561370  0.80237174  0.51009622     0.83500
N178        N  0.03693210  0.84446684  0.50921674    -0.77200
C179        C  0.06887473  0.86414768  0.50141512     0.83600
N180        N  0.07891571  0.84130856  0.49425805    -0.78900
C181        C  0.13846811  0.06261205  0.49049111    -0.27400
C182        C  0.15452306  0.04339014  0.49763004     0.06300
C183        C  0.19133106  0.06835623  0.50402360     0.25900
C184        C  0.21137754  0.11166773  0.50333593    -0.11800
C185        C  0.19532755  0.13116980  0.49623777    -0.25800
C186        C  0.15849935  0.10596830  0.48977183     0.36700
C187        C  0.13250415  0.99739914  0.49848821     0.06300
F188        F  0.20735610  0.05090901  0.51119811    -0.19600
H189        H  0.23955743  0.12990960  0.50843572     0.16100
F190        F  0.14139582  0.12291463  0.48283242    -0.23300
H191        H  0.11033343  0.04392636  0.48540649     0.17900
C192        C  0.08988736  0.97434208  0.50126494     0.25900
C193        C  0.06955372  0.93109190  0.50227371    -0.11800
C194        C  0.09109671  0.90993407  0.50036715    -0.25800
C195        C  0.13367493  0.93293299  0.49751912     0.36800
C196        C  0.15413403  0.97627962  0.49663716    -0.27500
F197        F  0.06809647  0.99370466  0.50327168    -0.19600
H198        H  0.03674120  0.91405233  0.50445014     0.16100
F199        F  0.15579547  0.91369489  0.49591847    -0.23300
H200        H  0.18692481  0.99341200  0.49444158     0.17900
C201        C  0.35483296  0.33414420  0.52006342    -0.27400
C202        C  0.37368156  0.31559612  0.52621394     0.06300
C203        C  0.35775020  0.27270836  0.52496917     0.25900
C204        C  0.32382900  0.24900748  0.51748570    -0.11800
C205        C  0.30530707  0.26770554  0.51111986    -0.25800
C206        C  0.32107983  0.31067425  0.51259780     0.36700
C207        C  0.41026118  0.34171055  0.53374217     0.06300
F208        F  0.37579367  0.25404459  0.53068491    -0.19600
H209        H  0.31253415  0.21611607  0.51653413     0.16100
F210        F  0.30385988  0.33026260  0.50695340    -0.23300
H211        H  0.36631499  0.36706856  0.52107599     0.17900
C212        C  0.44462375  0.37752176  0.52904002     0.25900
C213        C  0.47804849  0.40373470  0.53628808    -0.11800
C214        C  0.47786332  0.39494305  0.54838796    -0.25800
C215        C  0.44374306  0.35863267  0.55307141     0.36800
C216        C  0.41027431  0.33217952  0.54576192    -0.27500
F217        F  0.44586521  0.38721342  0.51740527    -0.19600
H218        H  0.50361368  0.43148074  0.53243815     0.16100
F219        F  0.44280715  0.34838631  0.56463641    -0.23300
H220        H  0.38397843  0.30476244  0.54952875     0.17900
C221        C  0.83165246  0.69205551  0.53296363    -0.27400
C222        C  0.86930143  0.71231369  0.53918753     0.06300
C223        C  0.86937418  0.70766937  0.55149902     0.25900
C224        C  0.83202892  0.68223468  0.55748441    -0.11800
C225        C  0.79421203  0.66099530  0.55124629    -0.25800
C226        C  0.79430772  0.66669480  0.53890969     0.36700
C227        C  0.90847398  0.73606931  0.53259633     0.06300
F228        F  0.90565866  0.72668311  0.55764445    -0.19600
H229        H  0.83287747  0.67827510  0.56695595     0.16100
F230        F  0.75841041  0.64839799  0.53258626    -0.23300
H231        H  0.83131952  0.69564397  0.52345021     0.17900
C232        C  0.92490832  0.71497933  0.52655572     0.25900
C233        C  0.96026664  0.73692614  0.51952838    -0.11800
C234        C  0.97983457  0.78039625  0.51833225    -0.25800
C235        C  0.96380298  0.80161076  0.52474093     0.36800
C236        C  0.92833420  0.77942886  0.53180542    -0.27500
F237        F  0.90630072  0.67299365  0.52734193    -0.19600
H238        H  0.97187957  0.71958800  0.51487167     0.16100
F239        F  0.98149454  0.84349770  0.52398895    -0.23300
H240        H  0.91576630  0.79595090  0.53645102     0.17900
C241        C  0.62916493  0.58678988  0.65206905    -0.27400
C242        C  0.58939210  0.56340282  0.65704938     0.06300
C243        C  0.55480334  0.54216130  0.64956530     0.25900
C244        C  0.56027607  0.54318614  0.63730512    -0.11800
C245        C  0.60032493  0.56511016  0.63227010    -0.25800
C246        C  0.63479030  0.58766185  0.63983146     0.36700
C247        C  0.58494844  0.56048097  0.67006727     0.06300
F248        F  0.51576052  0.52046700  0.65410301    -0.19600
H249        H  0.53298270  0.52632942  0.63178425     0.16100
F250        F  0.67420512  0.60902774  0.63559736    -0.23300
H251        H  0.65621197  0.60331474  0.65772665     0.17900
C252        C  0.56568518  0.52167904  0.67578418     0.25900
C253        C  0.56591887  0.51963690  0.68814135    -0.11800
C254        C  0.58560333  0.55617045  0.69497135    -0.25800
C255        C  0.60327444  0.59491496  0.68922665     0.36800
C256        C  0.60306609  0.59691338  0.67689189    -0.27500
F257        F  0.54879357  0.48585585  0.66942636    -0.19600
H258        H  0.55223093  0.48944518  0.69233033     0.16100
F259        F  0.62062345  0.63093421  0.69548518    -0.23300
H260        H  0.61762553  0.62704713  0.67262564     0.17900
C261        C  0.33446705  0.27055535  0.79984664    -0.27400
C262        C  0.37746522  0.29308708  0.80201992     0.06300
C263        C  0.39346303  0.28201121  0.81165348     0.25900
C264        C  0.36698452  0.24915656  0.81899894    -0.11800
C265        C  0.32381460  0.22646058  0.81696520    -0.25800
C266        C  0.30770065  0.23756809  0.80726444     0.36700
C267        C  0.40601956  0.32840298  0.79439757     0.06300
F268        F  0.43499188  0.30253955  0.81383751    -0.19600
H269        H  0.38058699  0.24158909  0.82632990     0.16100
F270        F  0.26635423  0.21649884  0.80483300    -0.23300
H271        H  0.32161063  0.27880297  0.79246719     0.17900
C272        C  0.40838953  0.32332145  0.78215091     0.25900
C273        C  0.43868796  0.35608866  0.77534084    -0.11800
C274        C  0.46700843  0.39446279  0.78061985    -0.25800
C275        C  0.46333000  0.39978596  0.79283509     0.36800
C276        C  0.43320073  0.36704216  0.79959761    -0.27500
F277        F  0.38271215  0.28617650  0.77687706    -0.19600
H278        H  0.44064122  0.35094729  0.76599246     0.16100
F279        F  0.48827909  0.43664263  0.79831660    -0.23300
H280        H  0.43132149  0.37171480  0.80899467     0.17900
C281        C  0.77198898  0.78202907  0.78049535    -0.27400
C282        C  0.77993866  0.77912385  0.79249070     0.06300
C283        C  0.76680924  0.73976862  0.79735794     0.25900
C284        C  0.74550217  0.70407230  0.79039126    -0.11800
C285        C  0.73654380  0.70665997  0.77843936    -0.25800
C286        C  0.75050481  0.74627399  0.77350490     0.36700
C287        C  0.80026929  0.81686660  0.80002430     0.06300
F288        F  0.77472195  0.73579991  0.80886388    -0.19600
H289        H  0.73586132  0.67427915  0.79442837     0.16100
F290        F  0.74191484  0.75071837  0.76212320    -0.23300
H291        H  0.78128586  0.81200400  0.77661704     0.17900
C292        C  0.83774960  0.85238396  0.79658832     0.25900
C293        C  0.85655351  0.88751062  0.80391835    -0.11800
C294        C  0.83804789  0.88801383  0.81470667    -0.25800
C295        C  0.80041083  0.85239566  0.81808870     0.36800
C296        C  0.78184130  0.81737565  0.81079640    -0.27500
F297        F  0.85657087  0.85284774  0.78626159    -0.19600
H298        H  0.88540827  0.91449274  0.80109031     0.16100
F299        F  0.78179763  0.85088288  0.82855415    -0.23300
H300        H  0.75273238  0.79054676  0.81355422     0.17900
C301        C  0.11620068  0.07579053  0.84047551    -0.27400
C302        C  0.09709226  0.08236317  0.83071770     0.06300
C303        C  0.12198845  0.10881792  0.82158066     0.25900
C304        C  0.16527817  0.12775173  0.82212597    -0.11800
C305        C  0.18462700  0.12048625  0.83175185    -0.25800
C306        C  0.15947974  0.09440678  0.84100497     0.36700
C307        C  0.05116457  0.06027122  0.82995924     0.06300
F308        F  0.10441398  0.11656896  0.81216545    -0.19600
H309        H  0.18360388  0.14775571  0.81490265     0.16100
F310        F  0.17646800  0.08695447  0.85061909    -0.23300
H311        H  0.09743614  0.05548171  0.84760147     0.17900
C312        C  0.03031023  0.03345644  0.82043248     0.25900
C313        C  0.98689249  0.01061335  0.82012185    -0.11800
C314        C  0.96324218  0.01399796  0.82928726    -0.25800
C315        C  0.98433845  0.04185319  0.83869097     0.36800
C316        C  0.02787850  0.06443054  0.83902856    -0.27500
F317        F  0.05194674  0.02801058  0.81166516    -0.19600
H318        H  0.97181449  0.98965887  0.81274668     0.16100
F319        F  0.96319878  0.04648243  0.84775920    -0.23300
H320        H  0.04352761  0.08502359  0.84643800     0.17900
C321        C  0.38817734  0.09715102  0.88038754    -0.27400
C322        C  0.37618050  0.08377476  0.86868821     0.06300
C323        C  0.38775865  0.05709971  0.86345992     0.25900
C324        C  0.41111042  0.04416661  0.86986881    -0.11800
C325        C  0.42305545  0.05732400  0.88162275    -0.25800
C326        C  0.41119089  0.08393158  0.88685449     0.36700
C327        C  0.35324087  0.09926672  0.86182282     0.06300
F328        F  0.37755488  0.04458913  0.85204185    -0.19600
H329        H  0.41975326  0.02370302  0.86562016     0.16100
F330        F  0.42307434  0.09854180  0.89803515    -0.23300
H331        H  0.37981134  0.11805994  0.88449622     0.17900
C332        C  0.31381660  0.07171351  0.85703256     0.25900
C333        C  0.29306416  0.08692320  0.85029120    -0.11800
C334        C  0.31171290  0.12969725  0.84803640    -0.25800
C335        C  0.35097542  0.15725093  0.85298830     0.36800
C336        C  0.37128420  0.14208239  0.85990240    -0.27500
F337        F  0.29541881  0.03017011  0.85890418    -0.19600
H338        H  0.26294016  0.06515115  0.84654739     0.16100
F339        F  0.36963374  0.19888709  0.85122443    -0.23300
H340        H  0.40159395  0.16372248  0.86357368     0.17900
C341        C  0.80654242  0.01393887  0.85793010    -0.27400
C342        C  0.76758216  0.97909454  0.86057950     0.06300
C343        C  0.75752721  0.94000877  0.85616029     0.25900
C344        C  0.78545753  0.93603678  0.84892365    -0.11800
C345        C  0.82402717  0.97092542  0.84588953    -0.25800
C346        C  0.83466344  0.01002631  0.85061248     0.36700
C347        C  0.73637160  0.98350747  0.86740592     0.06300
F348        F  0.72049931  0.90561551  0.85882212    -0.19600
H349        H  0.77656068  0.90542219  0.84559439     0.16100
F350        F  0.87121996  0.04465231  0.84776764    -0.23300
H351        H  0.81458728  0.04436923  0.86122585     0.17900
C352        C  0.74423643  0.99857908  0.87907614     0.25900
C353        C  0.71339030  0.00068521  0.88552833    -0.11800
C354        C  0.67447847  0.98825024  0.88038424    -0.25800
C355        C  0.66687256  0.97329926  0.86865501     0.36800
C356        C  0.69758087  0.97099191  0.86227342    -0.27500
F357        F  0.78127625  0.01018968  0.88431243    -0.19600
H358        H  0.72011271  0.01240161  0.89451819     0.16100
F359        F  0.62936674  0.95951865  0.86344044    -0.23300
H360        H  0.69100369  0.95912699  0.85328779     0.17900
C361        C  0.95945516  0.96218799  0.15319490    -0.27400
C362        C  0.98446840  0.96376738  0.16269006     0.06300
C363        C  0.99065978  0.99034664  0.17228057     0.25900
C364        C  0.97200293  0.01465090  0.17233453    -0.11800
C365        C  0.94657293  0.01286322  0.16287806    -0.25800
C366        C  0.94054939  0.98623730  0.15326501     0.36700
C367        C  0.00469249  0.93837648  0.16229521     0.06300
F368        F  0.01561898  0.99367067  0.18145925    -0.19600
H369        H  0.97737677  0.03478965  0.17985647     0.16100
F370        F  0.91704718  0.98384060  0.14380431    -0.23300
H371        H  0.95437726  0.94202345  0.14569673     0.17900
C372        C  0.99994598  0.91125273  0.17157712     0.25900
C373        C  0.01814557  0.88659430  0.17080990    -0.11800
C374        C  0.04162177  0.88853879  0.16081366    -0.25800
C375        C  0.04650973  0.91602099  0.15156975     0.36800
C376        C  0.02809819  0.94041892  0.15232856    -0.27500
F377        F  0.97664530  0.90759323  0.18122608    -0.19600
H378        H  0.01371646  0.86585389  0.17807358     0.16100
F379        F  0.06826914  0.91886324  0.14164150    -0.23300
H380        H  0.03215478  0.96109353  0.14507859     0.17900
C381        C  0.03902145  0.68179122  0.21206297    -0.27400
C382        C  0.02196256  0.67159882  0.20061400     0.06300
C383        C  0.99979414  0.62959425  0.19716002     0.25900
C384        C  0.99741715  0.59888948  0.20468594    -0.11800
C385        C  0.01672903  0.60927228  0.21584826    -0.25800
C386        C  0.03628703  0.65094194  0.21966890     0.36700
C387        C  0.03076297  0.70485061  0.19192506     0.06300
F388        F  0.98122652  0.61834121  0.18637372    -0.19600
H389        H  0.98117715  0.56694906  0.20164144     0.16100
F390        F  0.05530301  0.66247547  0.23037949    -0.23300
H391        H  0.05639369  0.71395327  0.21489963     0.17900
C392        C  0.02443574  0.73788471  0.19467937     0.25900
C393        C  0.03435767  0.76948778  0.18640117    -0.11800
C394        C  0.05137777  0.76908896  0.17531551    -0.25800
C395        C  0.05746414  0.73580093  0.17258453     0.36800
C396        C  0.04725058  0.70419981  0.18080787    -0.27500
F397        F  0.00842037  0.73947056  0.20532338    -0.19600
H398        H  0.02948022  0.79473471  0.18877204     0.16100
F399        F  0.07306189  0.73344869  0.16194275    -0.23300
H400        H  0.05298380  0.67941370  0.17854855     0.17900
C401        C  0.99127224  0.18694643  0.19123002    -0.27400
C402        C  0.96357929  0.19999435  0.19465893     0.06300
C403        C  0.92182155  0.17652180  0.19101569     0.25900
C404        C  0.90851435  0.14175585  0.18376301    -0.11800
C405        C  0.93628628  0.12917223  0.18003691    -0.25800
C406        C  0.97783136  0.15178566  0.18401101     0.36700
C407        C  0.97838328  0.23909574  0.20147792     0.06300
F408        F  0.89371884  0.18715476  0.19449873    -0.19600
H409        H  0.87622957  0.12466974  0.18103155     0.16100
F410        F  0.00590138  0.14112088  0.18053853    -0.23300
H411        H  0.02365584  0.20475259  0.19383865     0.17900
C412        C  0.00138095  0.24714613  0.21201212     0.25900
C413        C  0.01340274  0.28363233  0.21847875    -0.11800
C414        C  0.00306816  0.31285580  0.21450553    -0.25800
C415        C  0.98035903  0.30476301  0.20389275     0.36800
C416        C  0.96849661  0.26849577  0.19747097    -0.27500
F417        F  0.01113033  0.21923017  0.21623470    -0.19600
H418        H  0.03082944  0.28903049  0.22660226     0.16100
F419        F  0.96788977  0.33084598  0.19989845    -0.23300
H420        H  0.95112623  0.26318593  0.18933517     0.17900
C421        C  0.55683976  0.01048316  0.01076730    -0.27400
C422        C  0.52103487  0.98982725  0.00372753     0.06300
C423        C  0.48197322  0.96678507  0.00920444     0.25900
C424        C  0.47893754  0.96455649  0.02155131    -0.11800
C425        C  0.51476872  0.98510020  0.02865163    -0.25800
C426        C  0.55387079  0.00845601  0.02311194     0.36700
C427        C  0.52472658  0.99243326  0.99068559     0.06300
F428        F  0.44688369  0.94552049  0.00260300    -0.19600
H429        H  0.44852899  0.94600663  0.02554033     0.16100
F430        F  0.58920150  0.03036566  0.02955941    -0.23300
H431        H  0.58714368  0.02872814  0.00667485     0.17900
C432        C  0.50364213  0.00752823  0.98401311     0.25900
C433        C  0.50712299  0.00960947  0.97169175    -0.11800
C434        C  0.53147154  0.99643705  0.96570528    -0.25800
C435        C  0.55287417  0.98155925  0.97250274     0.36800
C436        C  0.54964479  0.97993966  0.98485564    -0.27500
F437        F  0.48031541  0.02107482  0.98943692    -0.19600
H438        H  0.49075311  0.02192830  0.96690295     0.16100
F439        F  0.57621461  0.96761063  0.96735448    -0.23300
H440        H  0.56608188  0.96814944  0.98989680     0.17900
C441        C  0.19796012  0.90381976  0.12973855    -0.27400
C442        C  0.21472254  0.87775020  0.12935282     0.06300
C443        C  0.19452660  0.83992349  0.13555325     0.22900
C444        C  0.15911802  0.82915780  0.14230923    -0.11800
C445        C  0.14299700  0.85585862  0.14309797    -0.25800
C446        C  0.16249428  0.89313353  0.13651154     0.36700
C447        C  0.25442682  0.89112321  0.12303801     0.06300
F448        F  0.20912202  0.81334767  0.13510441    -0.19600
H449        H  0.14474756  0.80001166  0.14709127     0.16100
F450        F  0.14830640  0.92002649  0.13684397    -0.23300
H451        H  0.21317950  0.93323519  0.12508209     0.17900
C452        C  0.26017532  0.90459583  0.11121435     0.25900
C453        C  0.29824550  0.91791300  0.10553053    -0.11800
C454        C  0.33143155  0.91808953  0.11149502    -0.25800
C455        C  0.32524797  0.90413788  0.12334002     0.36800
C456        C  0.28729276  0.89106743  0.12899795    -0.27500
F457        F  0.22873295  0.90415555  0.10508582    -0.19600
H458        H  0.30165715  0.92835367  0.09645324     0.16100
F459        F  0.35523728  0.90206446  0.12949455    -0.23300
H460        H  0.28364285  0.88106212  0.13814112     0.17900
C461        C  0.73330226  0.02007836  0.11585323    -0.27400
C462        C  0.72929202  0.01164921  0.12804879     0.06300
C463        C  0.68979297  0.99505263  0.13328672     0.25900
C464        C  0.65537965  0.98752613  0.12648554    -0.11800
C465        C  0.65926109  0.99633703  0.11428605    -0.25800
C466        C  0.69886495  0.01256266  0.10901882     0.36700
C467        C  0.76639994  0.02143080  0.13534835     0.06300
F468        F  0.68422578  0.98547776  0.14498933    -0.19600
H469        H  0.62554628  0.97447663  0.13085033     0.16100
F470        F  0.70507820  0.02258667  0.09736915    -0.23300
H471        H  0.76347227  0.03354148  0.11163465     0.17900
C472        C  0.79470041  0.00914274  0.13182399     0.25900
C473        C  0.82909728  0.01829886  0.13894916    -0.11800
C474        C  0.83622140  0.04021419  0.14965575    -0.25800
C475        C  0.80783260  0.05250604  0.15312890     0.36800
C476        C  0.77361377  0.04335144  0.14602519    -0.27500
F477        F  0.78870017  0.98756867  0.12161801    -0.19600
H478        H  0.85039541  0.00854689  0.13602055     0.16100
F479        F  0.81250235  0.07276735  0.16351523    -0.23300
H480        H  0.75272082  0.05371835  0.14887333     0.17900
C481        C  0.02209500  0.49352690  0.31947218    -0.27400
C482        C  0.03885245  0.47258430  0.32548941     0.06300
C483        C  0.05239691  0.44979903  0.31886807     0.25900
C484        C  0.04989766  0.44876189  0.30651301    -0.11800
C485        C  0.03415078  0.47056745  0.30045739    -0.25800
C486        C  0.01980075  0.49270465  0.30709943     0.36700
C487        C  0.04344380  0.47557452  0.33858869     0.06300
F488        F  0.06961782  0.42983578  0.32430211    -0.19600
H489        H  0.06144995  0.43169832  0.30167114     0.16100
F490        F  0.00273963  0.51288993  0.30172317    -0.23300
H491        H  0.01061432  0.51054463  0.32438003     0.17900
C492        C  0.06178942  0.51436214  0.34435123     0.25900
C493        C  0.06899767  0.51713756  0.35656049    -0.11800
C494        C  0.05825613  0.48144795  0.36329507    -0.25800
C495        C  0.03838119  0.44246098  0.35759187     0.36800
C496        C  0.03105661  0.43969734  0.34538534    -0.27500
F497        F  0.07456604  0.54987478  0.33811822    -0.19600
H498        H  0.08435763  0.54758790  0.36065852     0.16100
F499        F  0.02545161  0.40685988  0.36377358    -0.23300
H500        H  0.01581165  0.40935307  0.34120619     0.17900
C501        C  0.22532363  0.32507972  0.46969226    -0.27400
C502        C  0.18430455  0.30510934  0.46547351     0.06300
C503        C  0.15759263  0.26269569  0.46798641     0.25900
C504        C  0.17150167  0.24111965  0.47490023    -0.11800
C505        C  0.21221271  0.26146392  0.47946109    -0.25800
C506        C  0.23928011  0.30366283  0.47658254     0.36700
C507        C  0.16961654  0.32914018  0.45870701     0.06300
F508        F  0.11755697  0.24257736  0.46417450    -0.19600
H509        H  0.14996174  0.20877613  0.47697252     0.16100
F510        F  0.27939180  0.32439487  0.48034797    -0.23300
H511        H  0.24665797  0.35752292  0.46765573     0.17900
C512        C  0.17481591  0.36640237  0.46330308     0.25900
C513        C  0.16192078  0.38954143  0.45681065    -0.11800
C514        C  0.14337703  0.37619299  0.44557447    -0.25800
C515        C  0.13783007  0.33850878  0.44103596     0.36800
C516        C  0.15088096  0.31537073  0.44756300    -0.27500
F517        F  0.19184271  0.38019562  0.47418417    -0.19600
H518        H  0.16704946  0.41829707  0.46063968     0.16100
F519        F  0.11930570  0.32342273  0.43041064    -0.23300
H520        H  0.14671419  0.28676862  0.44384689     0.17900
C521        C  0.10186645  0.76648106  0.46945736    -0.27400
C522        C  0.08045689  0.72324836  0.47090653     0.06300
C523        C  0.05155187  0.70507043  0.48012511     0.25900
C524        C  0.04432188  0.72993701  0.48782913    -0.11800
C525        C  0.06597168  0.77351430  0.48654743    -0.25800
C526        C  0.09495956  0.79156334  0.47721543     0.36700
C527        C  0.08923773  0.69718024  0.46303658     0.06300
F528        F  0.03001551  0.66317528  0.48159078    -0.19600
H529        H  0.02170415  0.71485864  0.49483577     0.16100
F530        F  0.11666102  0.83331035  0.47551151    -0.23300
H531        H  0.12438836  0.78083783  0.46238668     0.17900
C532        C  0.07690328  0.69126548  0.45112311     0.25900
C533        C  0.08383190  0.66487988  0.44393698    -0.11800
C534        C  0.10345061  0.64421313  0.44850141    -0.25800
C535        C  0.11721429  0.65170888  0.46037538     0.36800
C536        C  0.10966339  0.67755879  0.46756310    -0.27500
F537        F  0.05694206  0.70991294  0.44656700    -0.19600
H538        H  0.07276933  0.65985314  0.43489055     0.16100
F539        F  0.13853059  0.63473839  0.46507625    -0.23300
H540        H  0.11992177  0.68244648  0.47670410     0.17900
loop_ 
_geom_bond_atom_site_label_1 
_geom_bond_atom_site_label_2 
_geom_bond_distance 
_geom_bond_site_symmetry_2 
_ccdc_geom_bond_type 
N1            N2   1.319       .  A
N1            C5   1.346       .  A
N1           Cu9   2.075       .  S
N2            C3   1.341       .  A
N2           Cu8   2.061       .  S
C3            C4   1.387       .  A
C3            H6   1.080       .  S
C4            C5   1.391       .  A
C4          C534   1.487       .  S
C5            H7   1.082       .  S
Cu8          N11   2.061       .  S
Cu9          N19   2.077       .  S
Cu10         N12   2.086       .  S
Cu10         N18   2.087       .  S
N11          N12   1.319       .  A
N11          C15   1.341       .  A
N12          C13   1.348       .  A
C13          C14   1.394       .  A
C13          H16   1.080       .  S
C14          C15   1.387       .  A
C14         C514   1.492       .  S
C15          H17   1.081       .  S
N18          N19   1.324       .  A
N18          C22   1.346       .  A
N19          C20   1.344       .  A
C20          C21   1.386       .  A
C20          H23   1.082       .  S
C21          C22   1.388       .  A
C21         C494   1.486       .  S
C22          H24   1.081       .  S
N25          N26   1.319       .  A
N25          C29   1.344       .  A
N25         Cu33   2.068       .  S
N26          C27   1.345       .  A
N26         Cu32   2.081       .  S
C27          C28   1.392       .  A
C27          H30   1.081       .  S
C28          C29   1.390       .  A
C28         C465   1.494       .  S
C29          H31   1.079       .  S
Cu32         N35   2.082       .  S
Cu33         N43   2.067       .  S
Cu34         N36   2.078       .  S
Cu34         N42   2.078       .  S
N35          N36   1.322       .  A
N35          C39   1.344       .  A
N36          C37   1.346       .  A
C37          C38   1.390       .  A
C37          H40   1.081       .  S
C38          C39   1.390       .  A
C38         C454   1.493       .  S
C39          H41   1.079       .  S
N42          N43   1.321       .  A
N42          C46   1.346       .  A
N43          C44   1.342       .  A
C44          C45   1.385       .  A
C44          H47   1.081       .  S
C45          C46   1.388       .  A
C45         C425   1.483       .  S
C46          H48   1.082       .  S
N49          N50   1.320       .  A
N49          C53   1.347       .  A
N49         Cu57   2.072       .  S
N50          C51   1.342       .  A
N50         Cu56   2.068       .  S
C51          C52   1.386       .  A
C51          H54   1.082       .  S
C52          C53   1.388       .  A
C52         C385   1.483       .  S
C53          H55   1.081       .  S
Cu56         N59   2.068       .  S
Cu57         N67   2.073       .  S
Cu58         N60   2.083       .  S
Cu58         N66   2.084       .  S
N59          N60   1.321       .  A
N59          C63   1.342       .  A
N60          C61   1.348       .  A
C61          C62   1.389       .  A
C61          H64   1.082       .  S
C62          C63   1.386       .  A
C62         C414   1.486       .  S
C63          H65   1.081       .  S
N66          N67   1.323       .  A
N66          C70   1.346       .  A
N67          C68   1.344       .  A
C68          C69   1.385       .  A
C68          H71   1.082       .  S
C69          C70   1.388       .  A
C69         C485   1.485       .  S
C70          H72   1.081       .  S
C73          N74   1.363       .  A
C73          N78   1.364       .  A
C73         C365   1.490       .  S
N74          C75   1.359       .  A
C75          N76   1.356       .  A
C75         C405   1.485       .  S
N76          C77   1.356       .  A
C77          N78   1.361       .  A
C77         C474   1.488       .  S
C79          N80   1.361       .  A
C79          N84   1.362       .  A
C79         C374   1.490       .  S
N80          C81   1.360       .  A
C81          N82   1.358       .  A
C81         C445   1.491       .  S
N82          C83   1.357       .  A
C83          N84   1.360       .  A
C83         C394   1.485       .  S
N85          N86   1.321       .  A
N85          C89   1.346       .  A
N85         Cu93   2.073       .  S
N86          C87   1.342       .  A
N86         Cu92   2.068   1_565  S
C87          C88   1.385       .  A
C87          H90   1.081   1_565  S
C88          C89   1.386       .  A
C88         C354   1.481       .  S
C89          H91   1.082       .  S
Cu92         N95   2.068       .  S
Cu93        N103   2.074       .  S
Cu94         N96   2.070       .  S
Cu94        N102   2.071       .  S
N95          N96   1.320       .  A
N95          C99   1.344       .  A
N96          C97   1.345       .  A
C97          C98   1.387       .  A
C97         H100   1.081       .  S
C98          C99   1.386       .  A
C98         C325   1.482       .  S
C99         H101   1.082       .  S
N102        N103   1.320   1_545  A
N102        C106   1.342       .  A
N103        C104   1.344       .  A
C104        C105   1.391       .  A
C104        H107   1.080       .  S
C105        C106   1.389   1_565  A
C105        C434   1.491       .  S
C106        H108   1.081       .  S
C109        N110   1.355       .  A
C109        N114   1.360       .  A
C109        C345   1.481       .  S
N110        C111   1.353       .  A
C111        N112   1.357       .  A
C111        C294   1.481       .  S
N112        C113   1.362       .  A
C113        N114   1.363       .  A
C113        C314   1.487   1_565  S
C115        N116   1.357       .  A
C115        N120   1.359       .  A
C115        C265   1.486       .  S
N116        C117   1.354       .  A
C117        N118   1.358       .  A
C117        C334   1.477       .  S
N118        C119   1.361       .  A
C119        N120   1.362       .  A
C119        C305   1.486       .  S
N121        N122   1.320       .  A
N121        C125   1.345       .  A
N121       Cu129   2.072       .  S
N122        C123   1.342       .  A
N122       Cu128   2.068       .  S
C123        C124   1.387       .  A
C123        H126   1.079       .  S
C124        C125   1.388       .  A
C124        C274   1.485       .  S
C125        H127   1.081       .  S
Cu128       N131   2.068       .  S
Cu129       N139   2.073       .  S
Cu130       N132   2.067       .  S
Cu130       N138   2.068       .  S
N131        N132   1.319       .  A
N131        C135   1.342       .  A
N132        C133   1.345       .  A
C133        C134   1.389       .  A
C133        H136   1.080       .  S
C134        C135   1.387       .  A
C134        C285   1.486       .  S
C135        H137   1.082       .  S
N138        N139   1.322       .  A
N138        C142   1.342       .  A
N139        C140   1.345       .  A
C140        C141   1.385       .  A
C140        H143   1.082       .  S
C141        C142   1.384       .  A
C141        C254   1.479       .  S
C142        H144   1.082       .  S
N145        N146   1.320       .  A
N145        C149   1.346       .  A
N145       Cu153   2.067       .  S
N146        C147   1.341       .  A
N146       Cu152   2.062       .  S
C147        C148   1.384       .  A
C147        H150   1.080       .  S
C148        C149   1.387       .  A
C148        C214   1.479       .  S
C149        H151   1.081       .  S
Cu152       N155   2.062       .  S
Cu153       N163   2.067       .  S
Cu154       N156   2.072       .  S
Cu154       N162   2.073       .  S
N155        N156   1.320       .  A
N155        C159   1.342       .  A
N156        C157   1.345       .  A
C157        C158   1.386       .  A
C157        H160   1.082       .  S
C158        C159   1.385       .  A
C158        C225   1.480       .  S
C159        H161   1.081       .  S
N162        N163   1.321       .  A
N162        C166   1.344       .  A
N163        C164   1.342       .  A
C164        C165   1.386       .  A
C164        H167   1.081       .  S
C165        C166   1.389       .  A
C165        C245   1.486       .  S
C166        H168   1.080       .  S
C169        N170   1.357       .  A
C169        N174   1.355       .  A
C169        C205   1.484       .  S
N170        C171   1.361       .  A
C171        N172   1.363       .  A
C171        C185   1.489       .  S
N172        C173   1.361       .  A
C173        N174   1.355       .  A
C173        C505   1.485       .  S
C175        N176   1.357       .  A
C175        N180   1.360       .  A
C175        C525   1.488       .  S
N176        C177   1.358       .  A
C177        N178   1.358       .  A
C177        C234   1.486   1_455  S
N178        C179   1.359       .  A
C179        N180   1.360       .  A
C179        C194   1.478       .  S
C181        C182   1.404       .  A
C181        C186   1.399       .  A
C181        H191   1.083       .  S
C182        C183   1.405       .  A
C182        C187   1.484   1_545  S
C183        C184   1.398       .  A
C183        F188   1.358       .  S
C184        C185   1.409       .  A
C184        H189   1.083       .  S
C185        C186   1.411       .  A
C186        F190   1.357       .  S
C187        C192   1.406       .  A
C187        C196   1.405       .  A
C192        C193   1.397       .  A
C192        F197   1.357       .  S
C193        C194   1.405       .  A
C193        H198   1.083       .  S
C194        C195   1.407       .  A
C195        C196   1.399       .  A
C195        F199   1.358       .  S
C196        H200   1.083       .  S
C201        C202   1.401       .  A
C201        C206   1.393       .  A
C201        H211   1.084       .  S
C202        C203   1.404       .  A
C202        C207   1.477       .  S
C203        C204   1.400       .  A
C203        F208   1.357       .  S
C204        C205   1.408       .  A
C204        H209   1.083       .  S
C205        C206   1.411       .  A
C206        F210   1.357       .  S
C207        C212   1.404       .  A
C207        C216   1.404       .  A
C212        C213   1.393       .  A
C212        F217   1.358       .  S
C213        C214   1.405       .  A
C213        H218   1.081       .  S
C214        C215   1.408       .  A
C215        C216   1.400       .  A
C215        F219   1.357       .  S
C216        H220   1.082       .  S
C221        C222   1.400       .  A
C221        C226   1.396       .  A
C221        H231   1.084       .  S
C222        C223   1.401       .  A
C222        C227   1.470       .  S
C223        C224   1.399       .  A
C223        F228   1.357       .  S
C224        C225   1.407       .  A
C224        H229   1.083       .  S
C225        C226   1.409       .  A
C226        F230   1.357       .  S
C227        C232   1.400       .  A
C227        C236   1.400       .  A
C232        C233   1.394       .  A
C232        F237   1.358       .  S
C233        C234   1.408       .  A
C233        H238   1.083       .  S
C234        C235   1.413       .  A
C235        C236   1.400       .  A
C235        F239   1.357       .  S
C236        H240   1.083       .  S
C241        C242   1.402       .  A
C241        C246   1.395       .  A
C241        H251   1.083       .  S
C242        C243   1.403       .  A
C242        C247   1.477       .  S
C243        C244   1.397       .  A
C243        F248   1.357       .  S
C244        C245   1.409       .  A
C244        H249   1.082       .  S
C245        C246   1.411       .  A
C246        F250   1.355       .  S
C247        C252   1.406       .  A
C247        C256   1.402       .  A
C252        C253   1.398       .  A
C252        F257   1.358       .  S
C253        C254   1.405       .  A
C253        H258   1.083       .  S
C254        C255   1.408       .  A
C255        C256   1.395       .  A
C255        F259   1.357       .  S
C256        H260   1.083       .  S
C261        C262   1.404       .  A
C261        C266   1.402       .  A
C261        H271   1.083       .  S
C262        C263   1.403       .  A
C262        C267   1.479       .  S
C263        C264   1.392       .  A
C263        F268   1.358       .  S
C264        C265   1.407       .  A
C264        H269   1.083       .  S
C265        C266   1.412       .  A
C266        F270   1.357       .  S
C267        C272   1.404       .  A
C267        C276   1.402       .  A
C272        C273   1.400       .  A
C272        F277   1.357       .  S
C273        C274   1.408       .  A
C273        H278   1.082       .  S
C274        C275   1.410       .  A
C275        C276   1.395       .  A
C275        F279   1.356       .  S
C276        H280   1.083       .  S
C281        C282   1.403       .  A
C281        C286   1.399       .  A
C281        H291   1.083       .  S
C282        C283   1.405       .  A
C282        C287   1.482       .  S
C283        C284   1.395       .  A
C283        F288   1.358       .  S
C284        C285   1.406       .  A
C284        H289   1.082       .  S
C285        C286   1.411       .  A
C286        F290   1.356       .  S
C287        C292   1.407       .  A
C287        C296   1.403       .  A
C292        C293   1.400       .  A
C292        F297   1.357       .  S
C293        C294   1.405       .  A
C293        H298   1.083       .  S
C294        C295   1.410       .  A
C295        C296   1.394       .  A
C295        F299   1.358       .  S
C296        H300   1.083       .  S
C301        C302   1.402       .  A
C301        C306   1.399       .  A
C301        H311   1.083       .  S
C302        C303   1.404       .  A
C302        C307   1.480       .  S
C303        C304   1.398       .  A
C303        F308   1.357       .  S
C304        C305   1.408       .  A
C304        H309   1.083       .  S
C305        C306   1.412       .  A
C306        F310   1.357       .  S
C307        C312   1.404       .  A
C307        C316   1.403       .  A
C312        C313   1.396   1_455  A
C312        F317   1.358       .  S
C313        C314   1.408       .  A
C313        H318   1.083   1_545  S
C314        C315   1.412       .  A
C315        C316   1.400   1_655  A
C315        F319   1.357       .  S
C316        H320   1.083       .  S
C321        C322   1.402       .  A
C321        C326   1.398       .  A
C321        H331   1.083       .  S
C322        C323   1.404       .  A
C322        C327   1.477       .  S
C323        C324   1.398       .  A
C323        F328   1.358       .  S
C324        C325   1.406       .  A
C324        H329   1.083       .  S
C325        C326   1.409       .  A
C326        F330   1.357       .  S
C327        C332   1.405       .  A
C327        C336   1.402       .  A
C332        C333   1.400       .  A
C332        F337   1.357       .  S
C333        C334   1.405       .  A
C333        H338   1.083       .  S
C334        C335   1.408       .  A
C335        C336   1.397       .  A
C335        F339   1.358       .  S
C336        H340   1.083       .  S
C341        C342   1.404   1_545  A
C341        C346   1.402       .  A
C341        H351   1.084       .  S
C342        C343   1.402       .  A
C342        C347   1.476       .  S
C343        C344   1.392       .  A
C343        F348   1.358       .  S
C344        C345   1.407       .  A
C344        H349   1.083       .  S
C345        C346   1.409   1_565  A
C346        F350   1.357       .  S
C347        C352   1.403       .  A
C347        C356   1.402       .  A
C352        C353   1.400   1_565  A
C352        F357   1.357   1_565  S
C353        C354   1.407   1_545  A
C353        H358   1.083       .  S
C354        C355   1.408       .  A
C355        C356   1.395       .  A
C355        F359   1.357       .  S
C356        H360   1.084       .  S
C361        C362   1.404       .  A
C361        C366   1.400       .  A
C361        H371   1.083       .  S
C362        C363   1.406       .  A
C362        C367   1.487   1_655  S
C363        C364   1.401   1_565  A
C363        F368   1.357   1_655  S
C364        C365   1.409       .  A
C364        H369   1.083       .  S
C365        C366   1.410   1_545  A
C366        F370   1.357       .  S
C367        C372   1.407   1_455  A
C367        C376   1.403       .  A
C372        C373   1.401   1_655  A
C372        F377   1.357       .  S
C373        C374   1.409       .  A
C373        H378   1.083       .  S
C374        C375   1.411       .  A
C375        C376   1.399       .  A
C375        F379   1.357       .  S
C376        H380   1.083       .  S
C381        C382   1.405       .  A
C381        C386   1.401       .  A
C381        H391   1.083       .  S
C382        C383   1.406   1_455  A
C382        C387   1.485       .  S
C383        C384   1.396       .  A
C383        F388   1.358       .  S
C384        C385   1.405   1_655  A
C384        H389   1.083       .  S
C385        C386   1.409       .  A
C386        F390   1.357       .  S
C387        C392   1.406       .  A
C387        C396   1.404       .  A
C392        C393   1.402       .  A
C392        F397   1.357       .  S
C393        C394   1.407       .  A
C393        H398   1.083       .  S
C394        C395   1.409       .  A
C395        C396   1.396       .  A
C395        F399   1.358       .  S
C396        H400   1.083       .  S
C401        C402   1.406       .  A
C401        C406   1.403       .  A
C401        H411   1.083   1_655  S
C402        C403   1.406       .  A
C402        C407   1.486       .  S
C403        C404   1.395       .  A
C403        F408   1.358       .  S
C404        C405   1.406       .  A
C404        H409   1.083       .  S
C405        C406   1.410       .  A
C406        F410   1.357   1_655  S
C407        C412   1.407   1_655  A
C407        C416   1.403       .  A
C412        C413   1.403       .  A
C412        F417   1.357       .  S
C413        C414   1.407       .  A
C413        H418   1.083       .  S
C414        C415   1.409   1_455  A
C415        C416   1.395       .  A
C415        F419   1.356       .  S
C416        H420   1.083       .  S
C421        C422   1.401   1_545  A
C421        C426   1.397       .  A
C421        H431   1.083       .  S
C422        C423   1.405       .  A
C422        C427   1.478   1_554  S
C423        C424   1.398       .  A
C423        F428   1.358       .  S
C424        C425   1.406       .  A
C424        H429   1.082       .  S
C425        C426   1.410   1_565  A
C426        F430   1.357       .  S
C427        C432   1.402   1_565  A
C427        C436   1.401       .  A
C432        C433   1.396       .  A
C432        F437   1.358       .  S
C433        C434   1.409   1_545  A
C433        H438   1.081       .  S
C434        C435   1.413       .  A
C435        C436   1.399       .  A
C435        F439   1.355       .  S
C436        H440   1.084       .  S
C441        C442   1.404       .  A
C441        C446   1.401       .  A
C441        H451   1.083       .  S
C442        C443   1.405       .  A
C442        C447   1.485       .  S
C443        C444   1.397       .  A
C443        F448   1.358       .  S
C444        C445   1.409       .  A
C444        H449   1.083       .  S
C445        C446   1.412       .  A
C446        F450   1.357       .  S
C447        C452   1.405       .  A
C447        C456   1.402       .  A
C452        C453   1.401       .  A
C452        F457   1.357       .  S
C453        C454   1.409       .  A
C453        H458   1.081       .  S
C454        C455   1.412       .  A
C455        C456   1.397       .  A
C455        F459   1.355       .  S
C456        H460   1.083       .  S
C461        C462   1.404       .  A
C461        C466   1.401       .  A
C461        H471   1.083       .  S
C462        C463   1.407   1_545  A
C462        C467   1.490       .  S
C463        C464   1.398       .  A
C463        F468   1.357       .  S
C464        C465   1.407       .  A
C464        H469   1.081       .  S
C465        C466   1.413   1_565  A
C466        F470   1.355       .  S
C467        C472   1.409       .  A
C467        C476   1.404       .  A
C472        C473   1.403       .  A
C472        F477   1.357   1_545  S
C473        C474   1.407       .  A
C473        H478   1.083       .  S
C474        C475   1.411       .  A
C475        C476   1.397       .  A
C475        F479   1.357       .  S
C476        H480   1.083       .  S
C481        C482   1.404       .  A
C481        C486   1.399       .  A
C481        H491   1.084       .  S
C482        C483   1.407       .  A
C482        C487   1.486       .  S
C483        C484   1.397       .  A
C483        F488   1.357       .  S
C484        C485   1.405       .  A
C484        H489   1.083       .  S
C485        C486   1.410       .  A
C486        F490   1.356       .  S
C487        C492   1.407       .  A
C487        C496   1.405       .  A
C492        C493   1.398       .  A
C492        F497   1.358       .  S
C493        C494   1.406       .  A
C493        H498   1.083       .  S
C494        C495   1.409       .  A
C495        C496   1.399       .  A
C495        F499   1.356       .  S
C496        H500   1.083       .  S
C501        C502   1.402       .  A
C501        C506   1.396       .  A
C501        H511   1.084       .  S
C502        C503   1.406       .  A
C502        C507   1.484       .  S
C503        C504   1.401       .  A
C503        F508   1.357       .  S
C504        C505   1.406       .  A
C504        H509   1.083       .  S
C505        C506   1.411       .  A
C506        F510   1.358       .  S
C507        C512   1.404       .  A
C507        C516   1.403       .  A
C512        C513   1.396       .  A
C512        F517   1.358       .  S
C513        C514   1.409       .  A
C513        H518   1.081       .  S
C514        C515   1.412       .  A
C515        C516   1.402       .  A
C515        F519   1.355       .  S
C516        H520   1.083       .  S
C521        C522   1.401       .  A
C521        C526   1.400       .  A
C521        H531   1.083       .  S
C522        C523   1.402       .  A
C522        C527   1.474       .  S
C523        C524   1.396       .  A
C523        F528   1.358       .  S
C524        C525   1.409       .  A
C524        H529   1.083       .  S
C525        C526   1.412       .  A
C526        F530   1.357       .  S
C527        C532   1.402       .  A
C527        C536   1.399       .  A
C532        C533   1.400       .  A
C532        F537   1.357       .  S
C533        C534   1.408       .  A
C533        H538   1.082       .  S
C534        C535   1.412       .  A
C535        C536   1.396       .  A
C535        F539   1.356       .  S
C536        H540   1.084       .  S
