geometry optimzed in LAMMPS
_audit_creation_date              2020-11-30 
_audit_creation_method            'lammps2cif' 
_symmetry_space_group_name_H-M    'P1' 
_symmetry_Int_Tables_number       1 
_symmetry_cell_setting            triclinic 
loop_ 
_symmetry_equiv_pos_as_xyz 
  x,y,z 
_cell_length_a                    77.77579693 
_cell_length_b                    77.88233309787229 
_cell_length_c                    85.42586083843706 
_cell_angle_alpha                 89.72695005451486 
_cell_angle_beta                  89.89696758377266 
_cell_angle_gamma                 90.16114107445388 
loop_ 
_atom_site_label 
_atom_site_type_symbol 
_atom_site_fract_x 
_atom_site_fract_y 
_atom_site_fract_z 
_atom_site_charge 
C1          C  0.83855371  0.71909755  0.20457118     0.80800
N2          N  0.83080668  0.72547779  0.21765945    -0.77600
C3          C  0.82419903  0.74170258  0.21747931     0.83200
N4          N  0.82550421  0.75137677  0.20426422    -0.77500
C5          C  0.83296453  0.74502826  0.19119793     0.83300
N6          N  0.83942297  0.72891221  0.19139482    -0.79200
C7          C  0.73653661  0.79896777  0.31771419     0.80800
N8          N  0.74755817  0.79404533  0.30614106    -0.77600
C9          C  0.75854251  0.78066402  0.30852819     0.83200
N10         N  0.75863358  0.77249651  0.32259662    -0.77500
C11         C  0.74773207  0.77723271  0.33417541     0.83300
N12         N  0.73656874  0.79034460  0.33163616    -0.79200
N13         N  0.96211191  0.45018576  0.32393230    -0.26800
N14         N  0.96953697  0.46348674  0.31700680    -0.34600
C15         C  0.98241898  0.46920329  0.32618364     0.01600
C16         C  0.98293653  0.45910125  0.33959451     0.07600
C17         C  0.96986298  0.44719829  0.33772660    -0.05500
H18         H  0.99045856  0.48019543  0.32351437     0.08300
H19         H  0.96621396  0.43708140  0.34580278     0.09500
Cu20       Cu  0.96051590  0.47358224  0.29591184     0.44200
Cu21       Cu  0.94156127  0.43684244  0.31443504     0.42000
Cu22       Cu  0.91972100  0.45510633  0.28122474     0.43900
N23         N  0.94620455  0.48371582  0.27742501    -0.34100
N24         N  0.93115037  0.47767475  0.27267545    -0.28400
C25         C  0.92505390  0.48804456  0.26129148    -0.04500
C26         C  0.93695204  0.50096927  0.25858381     0.07700
C27         C  0.95021387  0.49777841  0.26892319     0.01500
H28         H  0.91304909  0.48607461  0.25516887     0.09200
H29         H  0.96176607  0.50536310  0.27041815     0.08200
N30         N  0.91263470  0.43159058  0.29137206    -0.35600
N31         N  0.92081963  0.42513372  0.30359344    -0.27800
C32         C  0.91361509  0.41004941  0.30761481    -0.03000
C33         C  0.90018563  0.40666439  0.29745758     0.05600
C34         C  0.89996568  0.42061229  0.28724905     0.03700
H35         H  0.91797917  0.40209934  0.31722161     0.08800
H36         H  0.89122765  0.42265019  0.27758233     0.07600
N37         N  0.94898706  0.56101516  0.17639119    -0.26800
N38         N  0.95956170  0.55089367  0.18422097    -0.34600
C39         C  0.97319510  0.54730215  0.17501659     0.01600
C40         C  0.97086101  0.55540099  0.16066876     0.07600
C41         C  0.95535015  0.56388908  0.16197949    -0.05500
H42         H  0.98385997  0.53922423  0.17841851     0.08300
H43         H  0.94937427  0.57203347  0.15326688     0.09500
Cu44       Cu  0.95386249  0.54230356  0.20685639     0.44200
Cu45       Cu  0.92712138  0.57161329  0.18612299     0.42000
Cu46       Cu  0.91322932  0.55807850  0.22434305     0.43900
N47         N  0.94222737  0.53209455  0.22693221    -0.34100
N48         N  0.92722349  0.53707442  0.23270513    -0.28400
C49         C  0.92296831  0.52669187  0.24479065    -0.04500
C50         C  0.93603319  0.51489193  0.24689095     0.07700
C51         C  0.94804295  0.51873259  0.23545172     0.01500
H52         H  0.91135590  0.52783009  0.25169695     0.09200
H53         H  0.95988827  0.51193720  0.23315031     0.08200
N54         N  0.90399074  0.58023112  0.21337216    -0.35600
N55         N  0.90920839  0.58486623  0.19924127    -0.27800
C56         C  0.90193229  0.59988510  0.19534486    -0.03000
C57         C  0.89153754  0.60512661  0.20758136     0.05600
C58         C  0.89312533  0.59230278  0.21884603     0.03700
H59         H  0.90444610  0.60665255  0.18449768     0.08800
H60         H  0.88719794  0.59199358  0.23031081     0.07600
C61         C  0.83445474  0.29938898  0.30773963     0.80800
N62         N  0.83447961  0.28981967  0.32111080    -0.77600
C63         C  0.82520882  0.27505330  0.32211695     0.83200
N64         N  0.81605488  0.26970889  0.30952964    -0.77500
C65         C  0.81607316  0.27895204  0.29599427     0.83300
N66         N  0.82522918  0.29388186  0.29516452    -0.79200
C67         C  0.73963575  0.20278426  0.19572693     0.80800
N68         N  0.74760980  0.20871722  0.20886077    -0.77600
C69         C  0.75399755  0.22504564  0.20923514     0.83200
N70         N  0.75219478  0.23537172  0.19649035    -0.77500
C71         C  0.74432061  0.22961803  0.18336747     0.83300
N72         N  0.73813641  0.21330709  0.18302859    -0.79200
N73         N  0.61333321  0.05382938  0.17597017    -0.26800
N74         N  0.60328901  0.04358392  0.18434191    -0.34600
C75         C  0.58928004  0.03955998  0.17578441     0.01600
C76         C  0.59076764  0.04750139  0.16127550     0.07600
C77         C  0.60620582  0.05633900  0.16181261    -0.05500
H78         H  0.57912651  0.03097893  0.17959877     0.08300
H79         H  0.61182769  0.06410484  0.15258846     0.09500
Cu80       Cu  0.61044746  0.03468240  0.20647869     0.44200
Cu81       Cu  0.63623322  0.06407682  0.18431260     0.42000
Cu82       Cu  0.65356710  0.04770989  0.22050442     0.43900
N83         N  0.62294223  0.02388447  0.22576588    -0.34100
N84         N  0.63875790  0.02779517  0.23031397    -0.28400
C85         C  0.64314443  0.01731278  0.24227808    -0.04500
C86         C  0.62934378  0.00659933  0.24558648     0.07700
C87         C  0.61677189  0.01118467  0.23495965     0.01500
H88         H  0.65534603  0.01769495  0.24833111     0.09200
H89         H  0.60421846  0.00534153  0.23368077     0.08200
N90         N  0.66374980  0.06925863  0.20887113    -0.35600
N91         N  0.65728142  0.07494963  0.19552313    -0.27800
C92         C  0.66592315  0.08908875  0.19097460    -0.03000
C93         C  0.67851249  0.09267478  0.20195264     0.05600
C94         C  0.67672758  0.07979841  0.21318285     0.03700
H95         H  0.66290494  0.09644739  0.18057556     0.08800
H96         H  0.68413720  0.07835275  0.22381231     0.07600
N97         N  0.60266675  0.94592314  0.32503000    -0.26800
N98         N  0.59450359  0.95791414  0.31696726    -0.34600
C99         C  0.58127424  0.96380730  0.32567909     0.01600
C100        C  0.58135361  0.95522607  0.33995955     0.07600
C101        C  0.59510776  0.94406226  0.33908994    -0.05500
H102        H  0.57275606  0.97408562  0.32217931     0.08300
H103        H  0.59942145  0.93528000  0.34810423     0.09500
Cu104      Cu  0.60341300  0.96654113  0.29519869     0.44200
Cu105      Cu  0.62406518  0.93275503  0.31690560     0.42000
Cu106      Cu  0.64556624  0.94895097  0.28282749     0.43900
N107        N  0.61834938  0.97627043  0.27678227    -0.34100
N108        N  0.63384591  0.97062454  0.27291839    -0.28400
C109        C  0.64026782  0.98072974  0.26143208    -0.04500
C110        C  0.62814739  0.99306219  0.25769703     0.07700
C111        C  0.61440348  0.98978651  0.26757552     0.01500
H112        H  0.65268566  0.97897762  0.25594851     0.09200
H113        H  0.60257113  0.99701284  0.26831813     0.08200
N114        N  0.65308329  0.92630122  0.29421233    -0.35600
N115        N  0.64502504  0.92053284  0.30682231    -0.27800
C116        C  0.65236369  0.90578114  0.31154076    -0.03000
C117        C  0.66574788  0.90190163  0.30142574     0.05600
C118        C  0.66580520  0.91523972  0.29054826     0.03700
H119        H  0.64808884  0.89835886  0.32155167     0.08800
H120        H  0.67440213  0.91674956  0.28066470     0.07600
C121        C  0.82857112  0.81117326  0.69183105     0.80800
N122        N  0.82972914  0.80059899  0.67919447    -0.77600
C123        C  0.82511780  0.78379613  0.68047315     0.83200
N124        N  0.81922762  0.77769078  0.69437568    -0.77500
C125        C  0.81782439  0.78809221  0.70698945     0.83300
N126        N  0.82260149  0.80483399  0.70570540    -0.79200
C127        C  0.73554539  0.71876437  0.80637214     0.80800
N128        N  0.73589640  0.72803772  0.81980603    -0.77600
C129        C  0.74686807  0.74151158  0.82139307     0.83200
N130        N  0.75734547  0.74593785  0.80930273    -0.77500
C131        C  0.75693361  0.73698871  0.79568637     0.83300
N132        N  0.74611188  0.72329157  0.79431441    -0.79200
N133        N  0.61050970  0.45010242  0.68814321    -0.26800
N134        N  0.61054136  0.46700818  0.68941273    -0.34600
C135        C  0.60069983  0.47364592  0.67788972     0.01600
C136        C  0.59402186  0.46018562  0.66917537     0.07600
C137        C  0.60053323  0.44549391  0.67604867    -0.05500
H138        H  0.59829791  0.48720140  0.67618075     0.08300
H139        H  0.59848864  0.43238611  0.67233539     0.09500
Cu140      Cu  0.62345931  0.47950611  0.70757342     0.44200
Cu141      Cu  0.62478532  0.43394547  0.70222467     0.42000
Cu142      Cu  0.64768925  0.45111075  0.73471321     0.43900
N143        N  0.63299569  0.48698908  0.72940860    -0.34100
N144        N  0.64082963  0.47660417  0.73944670    -0.28400
C145        C  0.64363078  0.48519308  0.75287732    -0.04500
C146        C  0.63766550  0.50181243  0.75110101     0.07700
C147        C  0.63104969  0.50251420  0.73609517     0.01500
H148        H  0.64970404  0.47977546  0.76315129     0.09200
H149        H  0.62464965  0.51331698  0.73065868     0.08200
N150        N  0.65249584  0.42652241  0.72585403    -0.35600
N151        N  0.64360089  0.42040336  0.71395511    -0.27800
C152        C  0.64959544  0.40483779  0.71013479    -0.03000
C153        C  0.66305306  0.40075676  0.72004514     0.05600
C154        C  0.66452254  0.41483590  0.72993203     0.03700
H155        H  0.64477928  0.39732966  0.70046584     0.08800
H156        H  0.67393026  0.41664909  0.73909436     0.07600
N157        N  0.61110305  0.56508408  0.82821085    -0.26800
N158        N  0.61035943  0.54839343  0.82550564    -0.34600
C159        C  0.59973767  0.54103080  0.83607801     0.01600
C160        C  0.59330421  0.55376168  0.84569838     0.07600
C161        C  0.60076326  0.56883497  0.84035097    -0.05500
H162        H  0.59664413  0.52748465  0.83651256     0.08300
H163        H  0.59910093  0.58155660  0.84514681     0.09500
Cu164      Cu  0.62310619  0.53680502  0.80687051     0.44200
Cu165      Cu  0.62674779  0.58193051  0.81575567     0.42000
Cu166      Cu  0.64641089  0.56595701  0.78053928     0.43900
N167        N  0.63238500  0.52980217  0.78489826    -0.34100
N168        N  0.63992285  0.54057635  0.77497785    -0.28400
C169        C  0.64289627  0.53230342  0.76140673    -0.04500
C170        C  0.63732713  0.51547971  0.76300150     0.07700
C171        C  0.63078980  0.51433819  0.77803577     0.01500
H172        H  0.64893970  0.53802625  0.75122024     0.09200
H173        H  0.62477270  0.50323510  0.78341183     0.08200
N174        N  0.65269326  0.58974888  0.79037613    -0.35600
N175        N  0.64531825  0.59547407  0.80328477    -0.27800
C176        C  0.65225589  0.61073402  0.80706644    -0.03000
C177        C  0.66467919  0.61494753  0.79603821     0.05600
C178        C  0.66458826  0.60130800  0.78561459     0.03700
H179        H  0.64866598  0.61804892  0.81728648     0.08800
H180        H  0.67274038  0.59977651  0.77544575     0.07600
C181        C  0.83223988  0.21226927  0.80902867     0.80800
N182        N  0.82490752  0.21993725  0.79633440    -0.77600
C183        C  0.81899919  0.23634011  0.79730041     0.83200
N184        N  0.82054449  0.24500112  0.81098046    -0.77500
C185        C  0.82775870  0.23747461  0.82371082     0.83300
N186        N  0.83354008  0.22108995  0.82270191    -0.79200
C187        C  0.73432947  0.29975657  0.69851125     0.80800
N188        N  0.74592407  0.29462508  0.70949243    -0.77600
C189        C  0.75617258  0.28076380  0.70683054     0.83200
N190        N  0.75483258  0.27216808  0.69307709    -0.77500
C191        C  0.74322314  0.27709959  0.68211463     0.83300
N192        N  0.73290886  0.29077378  0.68496118    -0.79200
N193        N  0.96149574  0.06187079  0.82554993    -0.26800
N194        N  0.96977917  0.05062482  0.81683412    -0.34600
C195        C  0.98413694  0.04570656  0.82447151     0.01600
C196        C  0.98469303  0.05420387  0.83871079     0.07600
C197        C  0.97012535  0.06431650  0.83893944    -0.05500
H198        H  0.99322274  0.03634174  0.82017839     0.08300
H199        H  0.96606660  0.07290529  0.84814089     0.09500
Cu200      Cu  0.95987821  0.04232446  0.79546525     0.44200
Cu201      Cu  0.93889354  0.07356643  0.81895123     0.42000
Cu202      Cu  0.91654567  0.05929258  0.78496658     0.43900
N203        N  0.94482692  0.03377182  0.77681724    -0.34100
N204        N  0.92905317  0.03914086  0.77359482    -0.28400
C205        C  0.92282579  0.02992096  0.76154746    -0.04500
C206        C  0.93534878  0.01850285  0.75678104     0.07700
C207        C  0.94912430  0.02133856  0.76664327     0.01500
H208        H  0.91023630  0.03166070  0.75642030     0.09200
H209        H  0.96122522  0.01451793  0.76671146     0.08200
N210        N  0.90906281  0.08095506  0.79757813    -0.35600
N211        N  0.91753645  0.08587014  0.81017528    -0.27800
C212        C  0.91049584  0.10027288  0.81579457    -0.03000
C213        C  0.89686387  0.10485552  0.80631837     0.05600
C214        C  0.89629213  0.09229273  0.79481603     0.03700
H215        H  0.91523845  0.10709134  0.82591819     0.08800
H216        H  0.88745164  0.09156721  0.78507976     0.07600
N217        N  0.95253854  0.95808706  0.67545660    -0.26800
N218        N  0.96249585  0.96796626  0.68414419    -0.34600
C219        C  0.97742888  0.97075386  0.67646418     0.01600
C220        C  0.97663084  0.96235945  0.66221998     0.07600
C221        C  0.96066280  0.95454330  0.66197411    -0.05500
H222        H  0.98776453  0.97883867  0.68064185     0.08300
H223        H  0.95530932  0.94686297  0.65264359     0.09500
Cu224      Cu  0.95411874  0.97804041  0.70538870     0.44200
Cu225      Cu  0.92835957  0.94979901  0.68228802     0.42000
Cu226      Cu  0.90984937  0.96655388  0.71759184     0.43900
N227        N  0.94101359  0.98908315  0.72412418    -0.34100
N228        N  0.92488014  0.98559007  0.72804848    -0.28400
C229        C  0.92029184  0.99575831  0.74006669    -0.04500
C230        C  0.93425873  0.00585408  0.74405781     0.07700
C231        C  0.94716958  0.00124746  0.73377772     0.01500
H232        H  0.90784890  0.99549471  0.74574863     0.09200
H233        H  0.96001206  0.00658847  0.73315462     0.08200
N234        N  0.89927160  0.94583239  0.70546764    -0.35600
N235        N  0.90611776  0.94011669  0.69232540    -0.27800
C236        C  0.89712312  0.92648039  0.68733594    -0.03000
C237        C  0.88393811  0.92324018  0.69784559     0.05600
C238        C  0.88571056  0.93576694  0.70926047     0.03700
H239        H  0.90044160  0.91906924  0.67709763     0.08800
H240        H  0.87795840  0.93723658  0.71969557     0.07600
N241        N  0.34381456  0.31961273  0.56697485    -0.26800
N242        N  0.32788624  0.31608895  0.56272450    -0.34600
C243        C  0.32088644  0.30519096  0.57327164     0.01600
C244        C  0.33319665  0.30158651  0.58451564     0.07600
C245        C  0.34755787  0.31088933  0.58010914    -0.05500
H246        H  0.30788834  0.30024417  0.57276466     0.08300
H247        H  0.35967205  0.31171325  0.58627136     0.09500
Cu248      Cu  0.31712490  0.32698504  0.54282643     0.44200
Cu249      Cu  0.35916713  0.33721882  0.55548022     0.42000
Cu250      Cu  0.34092463  0.36397203  0.52532113     0.43900
N251        N  0.30866830  0.34145472  0.52388401    -0.34100
N252        N  0.31660399  0.35512165  0.51797148    -0.28400
C253        C  0.30679081  0.36164831  0.50636949    -0.04500
C254        C  0.29225528  0.35146795  0.50483720     0.07700
C255        C  0.29394657  0.33875669  0.51601089     0.01500
H256        H  0.31018012  0.37272945  0.49931829     0.09200
H257        H  0.28497546  0.32843423  0.51844122     0.08200
N258        N  0.36567071  0.36799099  0.53467668    -0.35600
N259        N  0.37198018  0.35783558  0.54568275    -0.27800
C260        C  0.38772474  0.36327599  0.54974083    -0.03000
C261        C  0.39182725  0.37761116  0.54088804     0.05600
C262        C  0.37752244  0.38024625  0.53138375     0.03700
H263        H  0.39554383  0.35718833  0.55861459     0.08800
H264        H  0.37579953  0.39040884  0.52285894     0.07600
N265        N  0.23163821  0.34354103  0.42307260    -0.26800
N266        N  0.24153380  0.33257604  0.43069444    -0.34600
C267        C  0.24509342  0.31925812  0.42121859     0.01600
C268        C  0.23716448  0.32216110  0.40692719     0.07600
C269        C  0.22880195  0.33768186  0.40853752    -0.05500
H270        H  0.25317241  0.30850146  0.42436592     0.08300
H271        H  0.22102053  0.34415964  0.39985548     0.09500
Cu272      Cu  0.25028178  0.33729117  0.45329893     0.44200
Cu273      Cu  0.22190014  0.36563608  0.43296149     0.42000
Cu274      Cu  0.23508523  0.37723109  0.47182479     0.43900
N275        N  0.26081075  0.34791603  0.47347801    -0.34100
N276        N  0.25593256  0.36263568  0.47979197    -0.28400
C277        C  0.26645949  0.36625836  0.49187621    -0.04500
C278        C  0.27829606  0.35311502  0.49331743     0.07700
C279        C  0.27427908  0.34168002  0.48156365     0.01500
H280        H  0.26546713  0.37753929  0.49915972     0.09200
H281        H  0.28099321  0.32993116  0.47877985     0.08200
N282        N  0.21413385  0.38855855  0.46042889    -0.35600
N283        N  0.20987090  0.38441672  0.44595930    -0.27800
C284        C  0.19588047  0.39330066  0.44166226    -0.03000
C285        C  0.19084992  0.40354261  0.45401942     0.05600
C286        C  0.20271245  0.40018043  0.46578716     0.03700
H287        H  0.18945487  0.39182518  0.43053028     0.08800
H288        H  0.20287318  0.40557353  0.47743334     0.07600
C289        C  0.57811395  0.55273288  0.45279864     0.80800
N290        N  0.56945839  0.55327690  0.43899586    -0.77600
C291        C  0.55513190  0.54365416  0.43682712     0.83200
N292        N  0.54923801  0.53361093  0.44866347    -0.77500
C293        C  0.55747817  0.53313691  0.46264478     0.83300
N294        N  0.57204062  0.54267565  0.46470437    -0.79200
C295        C  0.49826533  0.44208482  0.56027291     0.80800
N296        N  0.50707174  0.44155148  0.57407429    -0.77600
C297        C  0.52055848  0.45238937  0.57654666     0.83200
N298        N  0.52529774  0.46352804  0.56508467    -0.77500
C299        C  0.51685667  0.46404648  0.55123494     0.83300
N300        N  0.50325704  0.45335782  0.54887720    -0.79200
C301        C  0.97503470  0.53314802  0.56682717     0.80800
N302        N  0.98168269  0.52593768  0.55368008    -0.77600
C303        C  0.99817564  0.52020920  0.55342423     0.83200
N304        N  0.00810249  0.52194564  0.56638817    -0.77500
C305        C  0.00157380  0.52899798  0.57963539     0.83300
N306        N  0.98501513  0.53451877  0.57983391    -0.79200
C307        C  0.07801760  0.45814927  0.44814512     0.80800
N308        N  0.07105964  0.46364936  0.46185303    -0.77600
C309        C  0.05433904  0.46863081  0.46253447     0.83200
N310        N  0.04448964  0.46779898  0.44944270    -0.77500
C311        C  0.05131467  0.46252954  0.43565022     0.83300
N312        N  0.06812090  0.45780168  0.43500611    -0.79200
N313        N  0.83530198  0.66861207  0.58945687    -0.26800
N314        N  0.82694476  0.67892347  0.57980397    -0.34600
C315        C  0.82451505  0.69416485  0.58688743     0.01600
C316        C  0.83160787  0.69327866  0.60175096     0.07600
C317        C  0.83828294  0.67688418  0.60294432    -0.05500
H318        H  0.81769179  0.70488736  0.58176592     0.08300
H319        H  0.84487977  0.67134464  0.61288978     0.09500
Cu320      Cu  0.81850665  0.67086221  0.55793830     0.44200
Cu321      Cu  0.84255197  0.64382336  0.58384534     0.42000
Cu322      Cu  0.82788029  0.62578748  0.54765849     0.43900
N323        N  0.80777858  0.65790652  0.53906312    -0.34100
N324        N  0.81037047  0.64149175  0.53582311    -0.28400
C325        C  0.80022298  0.63704863  0.52371619    -0.04500
C326        C  0.79115800  0.65140873  0.51895599     0.07700
C327        C  0.79628885  0.66438118  0.52887854     0.01500
H328        H  0.79966685  0.62436903  0.51861769     0.09200
H329        H  0.79155861  0.67743178  0.52904996     0.08200
N330        N  0.84697757  0.61439765  0.56138031    -0.35600
N331        N  0.85190179  0.62103296  0.57486212    -0.27800
C332        C  0.86465741  0.61148867  0.58087806    -0.03000
C333        C  0.86817074  0.59820600  0.57068232     0.05600
C334        C  0.85669220  0.60044702  0.55839366     0.03700
H335        H  0.87140966  0.61449864  0.59158531     0.08800
H336        H  0.85574078  0.59278103  0.54790386     0.07600
N337        N  0.72885585  0.68135459  0.44108966    -0.26800
N338        N  0.74365937  0.68678046  0.44684997    -0.34600
C339        C  0.74951689  0.69987840  0.43789054     0.01600
C340        C  0.73763836  0.70294773  0.42611256     0.07600
C341        C  0.72472946  0.69098982  0.42856106    -0.05500
H342        H  0.76135226  0.70683179  0.43995669     0.08300
H343        H  0.71325528  0.68924505  0.42159910     0.09500
Cu344      Cu  0.75451624  0.67591578  0.46690747     0.44200
Cu345      Cu  0.71500911  0.66082175  0.45025522     0.42000
Cu346      Cu  0.73230997  0.63780241  0.48325168     0.43900
N347        N  0.76283774  0.66194431  0.48638832    -0.34100
N348        N  0.75529302  0.64783444  0.49179805    -0.28400
C349        C  0.76447138  0.64169491  0.50394192    -0.04500
C350        C  0.77822019  0.65260103  0.50646704     0.07700
C351        C  0.77673881  0.66534773  0.49523696     0.01500
H352        H  0.76108811  0.63040765  0.51072244     0.09200
H353        H  0.78529937  0.67616138  0.49346456     0.08200
N354        N  0.70888816  0.63153770  0.47293806    -0.35600
N355        N  0.70279265  0.63999367  0.46071079    -0.27800
C356        C  0.68766589  0.63306065  0.45652109    -0.03000
C357        C  0.68390140  0.61959721  0.46662883     0.05600
C358        C  0.69765145  0.61902943  0.47693825     0.03700
H359        H  0.67993580  0.63765211  0.44686934     0.08800
H360        H  0.69941329  0.61014187  0.48656963     0.07600
N361        N  0.84247579  0.33246538  0.93155793    -0.26800
N362        N  0.83148260  0.32253788  0.93923411    -0.34600
C363        C  0.82664258  0.30954337  0.92979654     0.01600
C364        C  0.83485466  0.31165105  0.91548575     0.07600
C365        C  0.84470140  0.32631288  0.91704608    -0.05500
H366        H  0.81737066  0.29971458  0.93289853     0.08300
H367        H  0.85295065  0.33210051  0.90826712     0.09500
Cu368      Cu  0.82275222  0.32856365  0.96165579     0.44200
Cu369      Cu  0.85417425  0.35400989  0.94085545     0.42000
Cu370      Cu  0.83953849  0.36968541  0.97746485     0.43900
N371        N  0.81275984  0.34124478  0.98112249    -0.34100
N372        N  0.81825102  0.35632962  0.98625604    -0.28400
C373        C  0.80794040  0.36147608  0.99800072    -0.04500
C374        C  0.79563215  0.34894830  0.00057935     0.07700
C375        C  0.79907879  0.33628053  0.98974785     0.01500
H376        H  0.80940379  0.37340522  0.00430606     0.09200
H377        H  0.79179580  0.32461305  0.98788294     0.08200
N378        N  0.86085038  0.38012908  0.96592149    -0.35600
N379        N  0.86596637  0.37426842  0.95220718    -0.27800
C380        C  0.87991957  0.38308521  0.94747197    -0.03000
C381        C  0.88394756  0.39513839  0.95876316     0.05600
C382        C  0.87156204  0.39287315  0.97034159     0.03700
H383        H  0.88679143  0.38060929  0.93670497     0.08800
H384        H  0.87049036  0.39987066  0.98120769     0.07600
N385        N  0.73653183  0.33624878  0.08293177    -0.26800
N386        N  0.74582038  0.32538547  0.07463867    -0.34600
C387        C  0.74903664  0.31138155  0.08349599     0.01600
C388        C  0.74159952  0.31377835  0.09808597     0.07600
C389        C  0.73387632  0.32969773  0.09731621    -0.05500
H390        H  0.75654361  0.30047423  0.07973719     0.08300
H391        H  0.72646301  0.33588212  0.10640500     0.09500
Cu392      Cu  0.75418594  0.33115669  0.05197271     0.44200
Cu393      Cu  0.72677131  0.35887005  0.07396030     0.42000
Cu394      Cu  0.73955359  0.37272409  0.03569761     0.43900
N395        N  0.76442791  0.34294474  0.03200534    -0.34100
N396        N  0.75981890  0.35827472  0.02670503    -0.28400
C397        C  0.77014939  0.36267146  0.01466030    -0.04500
C398        C  0.78151626  0.34937329  0.01205373     0.07700
C399        C  0.77751336  0.33706286  0.02319180     0.01500
H400        H  0.76934253  0.37461581  0.00818503     0.09200
H401        H  0.78409126  0.32502442  0.02516469     0.08200
N402        N  0.71810612  0.38262588  0.04718423    -0.35600
N403        N  0.71376709  0.37744980  0.06139945    -0.27800
C404        C  0.69924004  0.38534101  0.06578019    -0.03000
C405        C  0.69402326  0.39609694  0.05376748     0.05600
C406        C  0.70632204  0.39405753  0.04211454     0.03700
H407        H  0.69279218  0.38303895  0.07681621     0.08800
H408        H  0.70654321  0.40019635  0.03072850     0.07600
C409        C  0.99083425  0.46157842  0.95138837     0.80800
N410        N  0.99567639  0.47068712  0.96424566    -0.77600
C411        C  0.01121778  0.47876971  0.96457329     0.83200
N412        N  0.02195599  0.47744994  0.95209758    -0.77500
C413        C  0.01724594  0.46851106  0.93922960     0.83300
N414        N  0.00163735  0.46066868  0.93886911    -0.79200
C415        C  0.07923434  0.56684997  0.06062711     0.80800
N416        N  0.07341018  0.55757574  0.04826781    -0.77600
C417        C  0.05792210  0.54951642  0.04888140     0.83200
N418        N  0.04816863  0.55081965  0.06199234    -0.77500
C419        C  0.05383617  0.55987078  0.07452656     0.83300
N420        N  0.06943309  0.56788176  0.07385560    -0.79200
C421        C  0.58899689  0.46417514  0.06433828     0.80800
N422        N  0.58458993  0.47421318  0.05191027    -0.77600
C423        C  0.57056790  0.48454948  0.05266908     0.83200
N424        N  0.56102006  0.48488055  0.06598702    -0.77500
C425        C  0.56514378  0.47476825  0.07837690     0.83300
N426        N  0.57908066  0.46432857  0.07748901    -0.79200
C427        C  0.50019163  0.56919456  0.95595591     0.80800
N428        N  0.50649115  0.55970281  0.96795901    -0.77600
C429        C  0.52029131  0.54935864  0.96594024     0.83200
N430        N  0.52780510  0.54835101  0.95158783    -0.77500
C431        C  0.52161026  0.55781913  0.93940015     0.83300
N432        N  0.50787841  0.56833957  0.94167775    -0.79200
N433        N  0.34048144  0.68775162  0.93777503    -0.26800
N434        N  0.32375835  0.68639827  0.94020314    -0.34600
C435        C  0.31553610  0.69656535  0.92982773     0.01600
C436        C  0.32780411  0.70473625  0.92058842     0.07600
C437        C  0.34342727  0.69882944  0.92600445    -0.05500
H438        H  0.30173970  0.69817739  0.92929520     0.08300
H439        H  0.35606421  0.70219398  0.92162872     0.09500
Cu440      Cu  0.31381135  0.67132358  0.95831541     0.44200
Cu441      Cu  0.35863867  0.67414757  0.95009623     0.42000
Cu442      Cu  0.34589017  0.64786749  0.98248024     0.43900
N443        N  0.30870214  0.65978883  0.97991324    -0.34100
N444        N  0.32027769  0.65212102  0.98889962    -0.28400
C445        C  0.31291146  0.64815949  0.00275336    -0.04500
C446        C  0.29587861  0.65321600  0.00231946     0.07700
C447        C  0.29365999  0.66051968  0.98770012     0.01500
H448        H  0.31953358  0.64224472  0.01250532     0.09200
H449        H  0.28221756  0.66681268  0.98337145     0.08200
N450        N  0.37037955  0.64667779  0.97241049    -0.35600
N451        N  0.37477943  0.65664403  0.96050020    -0.27800
C452        C  0.39076711  0.65277671  0.95582044    -0.03000
C453        C  0.39692723  0.63973480  0.96522885     0.05600
C454        C  0.38366909  0.63616080  0.97569731     0.03700
H455        H  0.39724582  0.65877361  0.94599117     0.08800
H456        H  0.38347850  0.62631554  0.98467135     0.07600
N457        N  0.23947861  0.68829222  0.08026032    -0.26800
N458        N  0.25615235  0.68717984  0.07740272    -0.34600
C459        C  0.26464940  0.69739249  0.08751458     0.01600
C460        C  0.25265386  0.70546538  0.09694910     0.07600
C461        C  0.23687429  0.69941243  0.09198780    -0.05500
H462        H  0.27845350  0.69912679  0.08772608     0.08300
H463        H  0.22439900  0.70258233  0.09677702     0.09500
Cu464      Cu  0.26595162  0.67243281  0.05914742     0.44200
Cu465      Cu  0.22088387  0.67403445  0.06879598     0.42000
Cu466      Cu  0.23365162  0.64914727  0.03572505     0.43900
N467        N  0.27094174  0.66081420  0.03766551    -0.34100
N468        N  0.25916767  0.65321095  0.02888172    -0.28400
C469        C  0.26637826  0.64886620  0.01510672    -0.04500
C470        C  0.28353437  0.65358183  0.01538950     0.07700
C471        C  0.28598420  0.66111932  0.02983148     0.01500
H472        H  0.25960576  0.64279590  0.00555493     0.09200
H473        H  0.29762389  0.66717885  0.03402158     0.08200
N474        N  0.20962483  0.64642702  0.04646064    -0.35600
N475        N  0.20505303  0.65581627  0.05860887    -0.27800
C476        C  0.18936139  0.65087213  0.06350647    -0.03000
C477        C  0.18364875  0.63767286  0.05402959     0.05600
C478        C  0.19685784  0.63520422  0.04329619     0.03700
H479        H  0.18279148  0.65622979  0.07352308     0.08800
H480        H  0.19735734  0.62569778  0.03411962     0.07600
C481        C  0.24117476  0.80751860  0.19995562     0.80800
N482        N  0.24180764  0.79838624  0.18644570    -0.77600
C483        C  0.25247042  0.78468309  0.18505724     0.83200
N484        N  0.26240245  0.77997941  0.19740047    -0.77500
C485        C  0.26173745  0.78884199  0.21105651     0.83300
N486        N  0.25112784  0.80264382  0.21227012    -0.79200
C487        C  0.34047815  0.71494175  0.31096251     0.80800
N488        N  0.33382807  0.72162431  0.29748814    -0.77600
C489        C  0.32481992  0.73657292  0.29780183     0.83200
N490        N  0.32260073  0.74477909  0.31160894    -0.77500
C491        C  0.32906874  0.73828081  0.32510264     0.83300
N492        N  0.33800785  0.72331981  0.32475819    -0.79200
N493        N  0.46190720  0.45414294  0.17990479    -0.26800
N494        N  0.46604617  0.46988604  0.18422825    -0.34600
C495        C  0.47861858  0.47578939  0.17473022     0.01600
C496        C  0.48264456  0.46301611  0.16407938     0.07600
C497        C  0.47182806  0.44948519  0.16776073    -0.05500
H498        H  0.48463687  0.48827412  0.17572957     0.08300
H499        H  0.47106891  0.43719903  0.16194005     0.09500
Cu500      Cu  0.45467328  0.48177786  0.20345818     0.44200
Cu501      Cu  0.44274390  0.43980349  0.19047347     0.42000
Cu502      Cu  0.42281832  0.45549324  0.22536252     0.43900
N503        N  0.44365421  0.48866271  0.22481906    -0.34100
N504        N  0.43271949  0.47896028  0.23287627    -0.28400
C505        C  0.42905795  0.48678567  0.24649370    -0.04500
C506        C  0.43785074  0.50219700  0.24691658     0.07700
C507        C  0.44697256  0.50301817  0.23303675     0.01500
H508        H  0.42053025  0.48166669  0.25539295     0.09200
H509        H  0.45572443  0.51308510  0.22935640     0.08200
N510        N  0.41495564  0.43298383  0.21433185    -0.35600
N511        N  0.42246947  0.42748492  0.20142412    -0.27800
C512        C  0.41483291  0.41293304  0.19674231    -0.03000
C513        C  0.40181778  0.40890107  0.20719868     0.05600
C514        C  0.40225310  0.42192142  0.21824978     0.03700
H515        H  0.41859838  0.40583611  0.18645045     0.08800
H516        H  0.39394364  0.42328607  0.22833529     0.07600
N517        N  0.46119416  0.55777532  0.32956085    -0.26800
N518        N  0.46326090  0.54164004  0.32521920    -0.34600
C519        C  0.47410649  0.53387414  0.33526902     0.01600
C520        C  0.47927658  0.54583590  0.34623901     0.07600
C521        C  0.47088733  0.56082899  0.34224773    -0.05500
H522        H  0.47826766  0.52066755  0.33440185     0.08300
H523        H  0.47154031  0.57300026  0.34827367     0.09500
Cu524      Cu  0.45199147  0.53160228  0.30518846     0.44200
Cu525      Cu  0.44488221  0.57485731  0.31849023     0.42000
Cu526      Cu  0.42620133  0.56186010  0.28203970     0.43900
N527        N  0.44288884  0.52668419  0.28276801    -0.34100
N528        N  0.43410497  0.53780314  0.27417325    -0.28400
C529        C  0.43110261  0.53085216  0.26002198    -0.04500
C530        C  0.43814825  0.51458424  0.25981661     0.07700
C531        C  0.44546055  0.51231859  0.27439319     0.01500
H532        H  0.42412070  0.53709639  0.25065869     0.09200
H533        H  0.45243113  0.50118029  0.27851416     0.08200
N534        N  0.41963209  0.58460350  0.29337077    -0.35600
N535        N  0.42652716  0.58920256  0.30684610    -0.27800
C536        C  0.41958691  0.60413905  0.31146513    -0.03000
C537        C  0.40775146  0.60932396  0.30033098     0.05600
C538        C  0.40814145  0.59662040  0.28899965     0.03700
H539        H  0.42296984  0.61071010  0.32215622     0.08800
H540        H  0.40051196  0.59605520  0.27843714     0.07600
C541        C  0.22883587  0.21864632  0.30517622     0.80800
N542        N  0.23629370  0.22445817  0.29170441    -0.77600
C543        C  0.24472194  0.23982097  0.29145008     0.83200
N544        N  0.24552033  0.24935596  0.30471227    -0.77500
C545        C  0.23835579  0.24353466  0.31822531     0.83300
N546        N  0.23007144  0.22819197  0.31840588    -0.79200
C547        C  0.33181672  0.30541652  0.19295303     0.80800
N548        N  0.32075399  0.30127366  0.20472198    -0.77600
C549        C  0.31041534  0.28722501  0.20360874     0.83200
N550        N  0.31108628  0.27736255  0.19052276    -0.77500
C551        C  0.32214054  0.28135228  0.17870937     0.83300
N552        N  0.33256889  0.29529820  0.18004954    -0.79200
N553        N  0.10242812  0.06626220  0.32930214    -0.26800
N554        N  0.09748838  0.05112558  0.32399256    -0.34600
C555        C  0.08526380  0.04470511  0.33355060     0.01600
C556        C  0.08223872  0.05651166  0.34528930     0.07600
C557        C  0.09332372  0.07002446  0.34221779    -0.05500
H558        H  0.07893355  0.03244853  0.33196775     0.08300
H559        H  0.09488981  0.08161479  0.34900365     0.09500
Cu560      Cu  0.10767719  0.04022580  0.30391079     0.44200
Cu561      Cu  0.12166172  0.08087207  0.31902579     0.42000
Cu562      Cu  0.14366637  0.06304584  0.28546028     0.43900
N563        N  0.12072029  0.03152594  0.28428648    -0.34100
N564        N  0.13415683  0.03934431  0.27787686    -0.28400
C565        C  0.13976391  0.02987221  0.26572468    -0.04500
C566        C  0.12921669  0.01561358  0.26438580     0.07700
C567        C  0.11723445  0.01714317  0.27622384     0.01500
H568        H  0.15041913  0.03334394  0.25817964     0.09200
H569        H  0.10682239  0.00835369  0.27888645     0.08200
N570        N  0.14938223  0.08713099  0.29490981    -0.35600
N571        N  0.14136139  0.09340079  0.30727944    -0.27800
C572        C  0.14788509  0.10895157  0.31064406    -0.03000
C573        C  0.16059617  0.11282128  0.29982186     0.05600
C574        C  0.16117220  0.09869393  0.28999358     0.03700
H575        H  0.14352332  0.11689882  0.32020172     0.08800
H576        H  0.16960046  0.09690515  0.28005079     0.07600
N577        N  0.10715257  0.95163879  0.18645969    -0.26800
N578        N  0.09914237  0.96444366  0.19341105    -0.34600
C579        C  0.08564618  0.96923143  0.18452271     0.01600
C580        C  0.08533200  0.95900661  0.17127142     0.07600
C581        C  0.09916934  0.94801593  0.17293946    -0.05500
H582        H  0.07704085  0.97968806  0.18726554     0.08300
H583        H  0.10321211  0.93812042  0.16490007     0.09500
Cu584      Cu  0.10828198  0.97494829  0.21416312     0.44200
Cu585      Cu  0.12872206  0.93989658  0.19566502     0.42000
Cu586      Cu  0.14927765  0.95756441  0.22989813     0.43900
N587        N  0.12184332  0.98518110  0.23295311    -0.34100
N588        N  0.13677890  0.97947146  0.23829362    -0.28400
C589        C  0.14196838  0.98971719  0.25007784    -0.04500
C590        C  0.12964955  0.00225670  0.25229955     0.07700
C591        C  0.11706501  0.99893369  0.24135763     0.01500
H592        H  0.15363159  0.98792355  0.25676609     0.09200
H593        H  0.10534832  0.00611527  0.23950765     0.08200
N594        N  0.15749809  0.93499392  0.21900316    -0.35600
N595        N  0.14977599  0.92884502  0.20644111    -0.27800
C596        C  0.15756687  0.91430372  0.20201256    -0.03000
C597        C  0.17092218  0.91093964  0.21223804     0.05600
C598        C  0.17050235  0.92434989  0.22291546     0.03700
H599        H  0.15360926  0.90669815  0.19208933     0.08800
H600        H  0.17896414  0.92619733  0.23280656     0.07600
C601        C  0.58176101  0.95458489  0.94718085     0.80800
N602        N  0.57572634  0.96231236  0.96036645    -0.77600
C603        C  0.55971769  0.96936429  0.96053835     0.83200
N604        N  0.54980698  0.96854591  0.94747710    -0.77500
C605        C  0.55577197  0.96098389  0.93426754     0.83300
N606        N  0.57173347  0.95404087  0.93418705    -0.79200
C607        C  0.48480633  0.04792000  0.05937905     0.80800
N608        N  0.49097772  0.03890101  0.04700263    -0.77600
C609        C  0.50639218  0.03079637  0.04785323     0.83200
N610        N  0.51573845  0.03184544  0.06123329    -0.77500
C611        C  0.50969100  0.04065678  0.07379242     0.83300
N612        N  0.49418735  0.04868908  0.07282898    -0.79200
N613        N  0.84208850  0.83296156  0.07889958    -0.26800
N614        N  0.83117299  0.82341488  0.07093517    -0.34600
C615        C  0.82742438  0.80923164  0.07942995     0.01600
C616        C  0.83636289  0.81017779  0.09344795     0.07600
C617        C  0.84550053  0.82538149  0.09265180    -0.05500
H618        H  0.81843457  0.79934814  0.07593510     0.08300
H619        H  0.85399476  0.83062439  0.10144385     0.09500
Cu620      Cu  0.82168601  0.83195950  0.04954062     0.44200
Cu621      Cu  0.85183914  0.85581571  0.07068889     0.42000
Cu622      Cu  0.83817340  0.87478504  0.03483581     0.43900
N623        N  0.81148291  0.84609264  0.03102356    -0.34100
N624        N  0.81669498  0.86147306  0.02618285    -0.28400
C625        C  0.80625125  0.86674905  0.01453368    -0.04500
C626        C  0.79417437  0.85403871  0.01183485     0.07700
C627        C  0.79792510  0.84113981  0.02238395     0.01500
H628        H  0.80764219  0.87874454  0.00821206     0.09200
H629        H  0.79113499  0.82908931  0.02383995     0.08200
N630        N  0.85977291  0.88364563  0.04710099    -0.35600
N631        N  0.86409662  0.87642524  0.06053662    -0.27800
C632        C  0.87830403  0.88389931  0.06610781    -0.03000
C633        C  0.88352421  0.89652780  0.05575287     0.05600
C634        C  0.87144533  0.89606785  0.04372165     0.03700
H635        H  0.88463658  0.87999997  0.07680865     0.08800
H636        H  0.87128780  0.90395654  0.03326671     0.07600
N637        N  0.73073917  0.82592434  0.93481294    -0.26800
N638        N  0.74604181  0.82108258  0.93983587    -0.34600
C639        C  0.75206456  0.80868283  0.93032990     0.01600
C640        C  0.73972140  0.80544353  0.91903134     0.07600
C641        C  0.72640858  0.81656018  0.92226572    -0.05500
H642        H  0.76436479  0.80238950  0.93164540     0.08300
H643        H  0.71463095  0.81810312  0.91569300     0.09500
Cu644      Cu  0.75725675  0.83190258  0.95957405     0.44200
Cu645      Cu  0.71684930  0.84579014  0.94453829     0.42000
Cu646      Cu  0.73570031  0.87003048  0.97603489     0.43900
N647        N  0.76553974  0.84521187  0.97925466    -0.34100
N648        N  0.75831914  0.85931731  0.98482454    -0.28400
C649        C  0.76756627  0.86485979  0.99715499    -0.04500
C650        C  0.78098853  0.85354547  0.99955501     0.07700
C651        C  0.77924587  0.84121657  0.98811563     0.01500
H652        H  0.76449740  0.87604154  0.00407784     0.09200
H653        H  0.78753429  0.83029196  0.98618353     0.08200
N654        N  0.71229629  0.87639268  0.96561385    -0.35600
N655        N  0.70559660  0.86738708  0.95404337    -0.27800
C656        C  0.69073779  0.87461562  0.94954193    -0.03000
C657        C  0.68779722  0.88888615  0.95873992     0.05600
C658        C  0.70170747  0.88959033  0.96886926     0.03700
H659        H  0.68270293  0.86976991  0.94022653     0.08800
H660        H  0.70406036  0.89908881  0.97781743     0.07600
C661        C  0.99326019  0.95833810  0.05977765     0.80800
N662        N  0.00070350  0.96651781  0.04740165    -0.77600
C663        C  0.01699608  0.97274078  0.04847118     0.83200
N664        N  0.02588444  0.97063110  0.06198139    -0.77500
C665        C  0.01853348  0.96275750  0.07451109     0.83300
N666        N  0.00219761  0.95659539  0.07341419    -0.79200
C667        C  0.08451626  0.04757910  0.94419466     0.80800
N668        N  0.07473034  0.05015223  0.93116632    -0.77600
C669        C  0.05814423  0.04463259  0.93083805     0.83200
N670        N  0.05141668  0.03649924  0.94348918    -0.77500
C671        C  0.06107881  0.03354209  0.95639317     0.83300
N672        N  0.07763122  0.03920174  0.95676587    -0.79200
N673        N  0.33549814  0.18226749  0.07520180    -0.26800
N674        N  0.32068353  0.18674322  0.06888284    -0.34600
C675        C  0.31322432  0.19878658  0.07788897     0.01600
C676        C  0.32409688  0.20222010  0.09030552     0.07600
C677        C  0.33810195  0.19156847  0.08819874    -0.05500
H678        H  0.30096609  0.20475589  0.07545494     0.08300
H679        H  0.34917848  0.19037103  0.09576502     0.09500
Cu680      Cu  0.31207732  0.17590961  0.04821557     0.44200
Cu681      Cu  0.35080501  0.16297818  0.06612028     0.42000
Cu682      Cu  0.33473066  0.13757256  0.03351253     0.43900
N683        N  0.30506041  0.16225028  0.02846603    -0.34100
N684        N  0.31244501  0.14796492  0.02348987    -0.28400
C685        C  0.30373326  0.14224589  0.01088312    -0.04500
C686        C  0.29056313  0.15368190  0.00772087     0.07700
C687        C  0.29188503  0.16621381  0.01898539     0.01500
H688        H  0.30705503  0.13093043  0.00424448     0.09200
H689        H  0.28364688  0.17727545  0.02038698     0.08200
N690        N  0.35787538  0.13244537  0.04518078    -0.35600
N691        N  0.36343674  0.14184838  0.05700593    -0.27800
C692        C  0.37839147  0.13543929  0.06221906    -0.03000
C693        C  0.38267778  0.12134503  0.05326591     0.05600
C694        C  0.36937323  0.11981478  0.04251139     0.03700
H695        H  0.38562513  0.14071634  0.07188141     0.08800
H696        H  0.36804981  0.11015602  0.03353244     0.07600
N697        N  0.23597618  0.17541301  0.92484169    -0.26800
N698        N  0.24471291  0.18508025  0.93471242    -0.34600
C699        C  0.24825121  0.20027494  0.92778026     0.01600
C700        C  0.24153517  0.19999389  0.91277173     0.07600
C701        C  0.23389415  0.18401884  0.91133157    -0.05500
H702        H  0.25542211  0.21059982  0.93315651     0.08300
H703        H  0.22696213  0.17912069  0.90132710     0.09500
Cu704      Cu  0.25181844  0.17619714  0.95671874     0.44200
Cu705      Cu  0.22625773  0.15143009  0.93052997     0.42000
Cu706      Cu  0.23731819  0.13256536  0.96758579     0.43900
N707        N  0.26165907  0.16185060  0.97519072    -0.34100
N708        N  0.25720852  0.14584521  0.97866634    -0.28400
C709        C  0.26716423  0.14021571  0.99052824    -0.04500
C710        C  0.27813099  0.15339235  0.99479925     0.07700
C711        C  0.27420645  0.16691008  0.98494832     0.01500
H712        H  0.26617807  0.12764167  0.99589924     0.09200
H713        H  0.28030366  0.17941429  0.98465488     0.08200
N714        N  0.21673582  0.12395169  0.95403603    -0.35600
N715        N  0.21312770  0.13084681  0.94027018    -0.27800
C716        C  0.19904876  0.12325999  0.93439496    -0.03000
C717        C  0.19333100  0.11097248  0.94493922     0.05600
C718        C  0.20488054  0.11175034  0.95731109     0.03700
H719        H  0.19309711  0.12686113  0.92342840     0.08800
H720        H  0.20452601  0.10426884  0.96800695     0.07600
C721        C  0.31525862  0.80787092  0.81984882     0.80800
N722        N  0.30474604  0.80387729  0.80763396    -0.77600
C723        C  0.29482408  0.78942255  0.80817240     0.83200
N724        N  0.29544054  0.77907832  0.82102502    -0.77500
C725        C  0.30599253  0.78287303  0.83315113     0.83300
N726        N  0.31593340  0.79719847  0.83245115    -0.79200
C727        C  0.22496549  0.71310707  0.70559423     0.80800
N728        N  0.23051388  0.72036696  0.71915696    -0.77600
C729        C  0.23624584  0.73687577  0.71934522     0.83200
N730        N  0.23623234  0.74616599  0.70586565    -0.77500
C731        C  0.23089588  0.73907340  0.69221653     0.83300
N732        N  0.22527831  0.72250995  0.69209343    -0.79200
N733        N  0.11367947  0.45499031  0.83278154    -0.26800
N734        N  0.10366001  0.46472893  0.82399641    -0.34600
C735        C  0.08913794  0.46816220  0.83198113     0.01600
C736        C  0.09026739  0.46037739  0.84654058     0.07600
C737        C  0.10599499  0.45217372  0.84665588    -0.05500
H738        H  0.07880572  0.47617733  0.82770685     0.08300
H739        H  0.11139937  0.44457688  0.85606322     0.09500
Cu740      Cu  0.11116065  0.47371647  0.80208501     0.44200
Cu741      Cu  0.13703789  0.44556086  0.82527358     0.42000
Cu742      Cu  0.15397540  0.46075646  0.78844408     0.43900
N743        N  0.12374378  0.48443407  0.78289193    -0.34100
N744        N  0.13954672  0.48044810  0.77842741    -0.28400
C745        C  0.14403186  0.49055691  0.76623789    -0.04500
C746        C  0.13029035  0.50112007  0.76274110     0.07700
C747        C  0.11764719  0.49686073  0.77344618     0.01500
H748        H  0.15618883  0.48990647  0.76009490     0.09200
H749        H  0.10504739  0.50260150  0.77449235     0.08200
N750        N  0.16345387  0.43922870  0.80010873    -0.35600
N751        N  0.15725047  0.43403353  0.81374360    -0.27800
C752        C  0.16522567  0.41954513  0.81813203    -0.03000
C753        C  0.17704389  0.41524413  0.80669857     0.05600
C754        C  0.17557948  0.42802502  0.79540851     0.03700
H755        H  0.16212046  0.41237791  0.82863826     0.08800
H756        H  0.18250069  0.42890315  0.78443672     0.07600
N757        N  0.10620655  0.55306888  0.67854063    -0.26800
N758        N  0.09719920  0.54258244  0.68762090    -0.34600
C759        C  0.08345621  0.53685296  0.67953310     0.01600
C760        C  0.08409580  0.54396643  0.66462894     0.07600
C761        C  0.09868795  0.55409303  0.66444948    -0.05500
H762        H  0.07404587  0.52780664  0.68399023     0.08300
H763        H  0.10343086  0.56183368  0.65481013     0.09500
Cu764      Cu  0.10521351  0.53596420  0.71010229     0.44200
Cu765      Cu  0.12800240  0.56624686  0.68549885     0.42000
Cu766      Cu  0.14595369  0.55623833  0.72257508     0.43900
N767        N  0.11951531  0.52843462  0.72954687    -0.34100
N768        N  0.13458483  0.53507206  0.73352367    -0.28400
C769        C  0.14084474  0.52624354  0.74584598    -0.04500
C770        C  0.12901490  0.51374343  0.74997327     0.07700
C771        C  0.11564238  0.51552505  0.73948111     0.01500
H772        H  0.15294676  0.52895562  0.75156342     0.09200
H773        H  0.10416952  0.50767415  0.73881664     0.08200
N774        N  0.15329440  0.57788546  0.70973633    -0.35600
N775        N  0.14675343  0.58129544  0.69581544    -0.27800
C776        C  0.15348104  0.59608987  0.69037846    -0.03000
C777        C  0.16478951  0.60244946  0.70144038     0.05600
C778        C  0.16433484  0.59054731  0.71359956     0.03700
H779        H  0.15002963  0.60199694  0.67933979     0.08800
H780        H  0.17135552  0.59110723  0.72450280     0.07600
N781        N  0.44789405  0.05835074  0.68450898    -0.26800
N782        N  0.45812989  0.04867266  0.69313143    -0.34600
C783        C  0.47227152  0.04485567  0.68466375     0.01600
C784        C  0.47057074  0.05233696  0.66998218     0.07600
C785        C  0.45496785  0.06073558  0.67033118    -0.05500
H786        H  0.48270400  0.03682371  0.68869867     0.08300
H787        H  0.44926127  0.06826026  0.66102443     0.09500
Cu788      Cu  0.45093553  0.04059153  0.71552199     0.44200
Cu789      Cu  0.42517778  0.06861589  0.69255494     0.42000
Cu790      Cu  0.40881858  0.05659115  0.73012897     0.43900
N791        N  0.43769915  0.03067392  0.73483925    -0.34100
N792        N  0.42227021  0.03567275  0.73959052    -0.28400
C793        C  0.41715834  0.02538515  0.75148086    -0.04500
C794        C  0.43008919  0.01365360  0.75451843     0.07700
C795        C  0.44290563  0.01743246  0.74382265     0.01500
H796        H  0.40505322  0.02655162  0.75763978     0.09200
H797        H  0.45493158  0.01067750  0.74233447     0.08200
N798        N  0.40006903  0.07823637  0.71786494    -0.35600
N799        N  0.40618942  0.08216336  0.70386380    -0.27800
C800        C  0.39900207  0.09678573  0.69878543    -0.03000
C801        C  0.38771411  0.10257990  0.71009478     0.05600
C802        C  0.38869540  0.09046598  0.72208819     0.03700
H803        H  0.40220247  0.10293583  0.68778153     0.08800
H804        H  0.38190301  0.09069679  0.73314760     0.07600
N805        N  0.45206006  0.95073299  0.83306776    -0.26800
N806        N  0.46155963  0.96140583  0.82461424    -0.34600
C807        C  0.47575136  0.96552816  0.83286971     0.01600
C808        C  0.47484770  0.95716124  0.84721084     0.07600
C809        C  0.45966925  0.94800049  0.84692225    -0.05500
H810        H  0.48553235  0.97452384  0.82903980     0.08300
H811        H  0.45445250  0.93997504  0.85616027     0.09500
Cu812      Cu  0.45325553  0.97089641  0.80305531     0.44200
Cu813      Cu  0.42905562  0.94030480  0.82584018     0.42000
Cu814      Cu  0.40940066  0.95719338  0.79153201     0.43900
N815        N  0.43889733  0.98207917  0.78510388    -0.34100
N816        N  0.42287357  0.97782241  0.78151163    -0.28400
C817        C  0.41716503  0.98858488  0.77026329    -0.04500
C818        C  0.43028506  0.99988935  0.76642094     0.07700
C819        C  0.44387104  0.99533968  0.77597397     0.01500
H820        H  0.40452037  0.98798572  0.76503287     0.09200
H821        H  0.45632237  0.00153309  0.77655672     0.08200
N822        N  0.39994479  0.93551581  0.80332857    -0.35600
N823        N  0.40734177  0.92954694  0.81613959    -0.27800
C824        C  0.39896011  0.91542342  0.82108880    -0.03000
C825        C  0.38555474  0.91218050  0.81088521     0.05600
C826        C  0.38657244  0.92520215  0.79973505     0.03700
H827        H  0.40265446  0.90790014  0.83120397     0.08800
H828        H  0.37835390  0.92691772  0.78964884     0.07600
C829        C  0.23766342  0.30555744  0.81188011     0.80800
N830        N  0.24560996  0.30039513  0.79849269    -0.77600
C831        C  0.25310627  0.28468802  0.79775190     0.83200
N832        N  0.25238745  0.27410876  0.81038431    -0.77500
C833        C  0.24462584  0.27911933  0.82381060     0.83300
N834        N  0.23727524  0.29488940  0.82456439    -0.79200
C835        C  0.32735230  0.21181893  0.69574654     0.80800
N836        N  0.32715062  0.22093675  0.68214896    -0.77600
C837        C  0.31803592  0.23576737  0.68103669     0.83200
N838        N  0.30933292  0.24166443  0.69371129    -0.77500
C839        C  0.30975651  0.23281927  0.70746247     0.83300
N840        N  0.31868593  0.21787396  0.70836664    -0.79200
N841        N  0.32528613  0.83911975  0.42831378    -0.26800
N842        N  0.31656285  0.82814919  0.43713395    -0.34600
C843        C  0.31335668  0.81387915  0.42868958     0.01600
C844        C  0.32023355  0.81623237  0.41383193     0.07600
C845        C  0.32762576  0.83236588  0.41405058    -0.05500
H846        H  0.30609716  0.80290305  0.43286161     0.08300
H847        H  0.33440713  0.83869380  0.40456459     0.09500
Cu848      Cu  0.30868318  0.83441366  0.45979655     0.44200
Cu849      Cu  0.33433977  0.86252165  0.43608356     0.42000
Cu850      Cu  0.32168479  0.87749482  0.47388504     0.43900
N851        N  0.29852148  0.84642469  0.47959202    -0.34100
N852        N  0.30238995  0.86222511  0.48413188    -0.28400
C853        C  0.29222471  0.86636868  0.49635233    -0.04500
C854        C  0.28178166  0.85243107  0.49986721     0.07700
C855        C  0.28617104  0.84002404  0.48906326     0.01500
H856        H  0.29256773  0.87855252  0.50237781     0.09200
H857        H  0.28033107  0.82748510  0.48778543     0.08200
N858        N  0.34266364  0.88782667  0.46153375    -0.35600
N859        N  0.34684086  0.88227679  0.44744529    -0.27800
C860        C  0.36114619  0.89034517  0.44252288    -0.14200
C861        C  0.36648039  0.90157525  0.45405569     0.05600
C862        C  0.35441122  0.89964785  0.46598369     0.03700
H863        H  0.36756060  0.88762494  0.43157309     0.08800
H864        H  0.35444148  0.90600421  0.47721559     0.07600
N865        N  0.22193302  0.82869709  0.58046251    -0.26800
N866        N  0.23290856  0.81947228  0.57221714    -0.34600
C867        C  0.23736866  0.80552920  0.58075044     0.01600
C868        C  0.22890665  0.80625375  0.59507095     0.07600
C869        C  0.21926418  0.82111580  0.59439443    -0.05500
H870        H  0.24647080  0.79589379  0.57702092     0.08300
H871        H  0.21081867  0.82608559  0.60335960     0.09500
Cu872      Cu  0.24179260  0.82765137  0.55022876     0.44200
Cu873      Cu  0.21062113  0.85109396  0.57265009     0.42000
Cu874      Cu  0.22405176  0.86931218  0.53640787     0.43900
N875        N  0.25148312  0.84195186  0.53129182    -0.34100
N876        N  0.24569426  0.85723881  0.52692559    -0.28400
C877        C  0.25574806  0.86336654  0.51529094    -0.04500
C878        C  0.26821194  0.85128750  0.51194461     0.07700
C879        C  0.26506933  0.83784461  0.52222910     0.01500
H880        H  0.25390263  0.87559105  0.50947169     0.09200
H881        H  0.27244541  0.82614619  0.52335705     0.08200
N882        N  0.20226991  0.87788760  0.54843317    -0.35600
N883        N  0.19777819  0.87117809  0.56207081    -0.27800
C884        C  0.18342728  0.87884787  0.56723343    -0.03000
C885        C  0.17841766  0.89098478  0.55631035     0.05600
C886        C  0.19067127  0.89002275  0.54447112     0.03700
H887        H  0.17689151  0.87549844  0.57801826     0.08800
H888        H  0.19109590  0.89750624  0.53377754     0.07600
N889        N  0.82691102  0.18454712  0.43394412    -0.26800
N890        N  0.80993151  0.18402090  0.43467516    -0.34600
C891        C  0.80353894  0.19370790  0.42292669     0.01600
C892        C  0.81719243  0.20080420  0.41463024     0.07600
C893        C  0.83177557  0.19472110  0.42197717    -0.05500
H894        H  0.78998651  0.19562042  0.42070939     0.08300
H895        H  0.84498755  0.19708777  0.41859696     0.09500
Cu896      Cu  0.79669328  0.17042351  0.45215117     0.44200
Cu897      Cu  0.84294158  0.17045420  0.44832384     0.42000
Cu898      Cu  0.82406672  0.14417302  0.47803938     0.43900
N899        N  0.78831584  0.15897827  0.47305489    -0.34100
N900        N  0.79842724  0.15005787  0.48252310    -0.28400
C901        C  0.78971157  0.14622240  0.49570142    -0.04500
C902        C  0.77324499  0.15266994  0.49440927     0.07700
C903        C  0.77278883  0.16073026  0.47993275     0.01500
H904        H  0.79511639  0.13957235  0.50568678     0.09200
H905        H  0.76230209  0.16819366  0.47516402     0.08200
N906        N  0.84951749  0.14150057  0.47091544    -0.35600
N907        N  0.85639711  0.15159105  0.46011880    -0.27800
C908        C  0.87264754  0.14666719  0.45739164    -0.03000
C909        C  0.87627965  0.13269745  0.46689137     0.05600
C910        C  0.86129127  0.12978116  0.47535336     0.03700
H911        H  0.88093082  0.15248554  0.44866752     0.08800
H912        H  0.85895686  0.11962990  0.48378757     0.07600
N913        N  0.72088766  0.18135228  0.57740265    -0.26800
N914        N  0.73690939  0.18255005  0.57234925    -0.34600
C915        C  0.74558183  0.19357953  0.58156877     0.01600
C916        C  0.73434005  0.19974937  0.59281164     0.07600
C917        C  0.71881875  0.19171972  0.58978213    -0.05500
H918        H  0.75892867  0.19714314  0.57997619     0.08300
H919        H  0.70691933  0.19312720  0.59621935     0.09500
Cu920      Cu  0.74526978  0.16967939  0.55248538     0.44200
Cu921      Cu  0.70270093  0.16535933  0.56739884     0.42000
Cu922      Cu  0.71205518  0.14657234  0.52982995     0.43900
N923        N  0.74885777  0.15983630  0.53012772    -0.34100
N924        N  0.73681085  0.15240995  0.52151910    -0.28400
C925        C  0.74349665  0.14886803  0.50729689    -0.04500
C926        C  0.76056018  0.15401667  0.50715274     0.07700
C927        C  0.76350575  0.16081938  0.52178969     0.01500
H928        H  0.73658182  0.14264724  0.49791287     0.09200
H929        H  0.77534979  0.16648761  0.52595967     0.08200
N930        N  0.69002542  0.14047291  0.54296604    -0.35600
N931        N  0.68690559  0.14743118  0.55676571    -0.27800
C932        C  0.67235664  0.14071223  0.56272758    -0.03000
C933        C  0.66582334  0.12890251  0.55224190     0.05600
C934        C  0.67737886  0.12909167  0.53979032     0.03700
H935        H  0.66702365  0.14409728  0.57399957     0.08800
H936        H  0.67680059  0.12135472  0.52932299     0.07600
C937        C  0.07111491  0.95643027  0.55288596     0.80800
N938        N  0.06180052  0.95674508  0.56644889    -0.77600
C939        C  0.04591955  0.96403392  0.56665929     0.83200
N940        N  0.03951179  0.97097087  0.55333789    -0.77500
C941        C  0.04863739  0.97088658  0.53983349     0.83300
N942        N  0.06446418  0.96356059  0.53962173    -0.79200
C943        C  0.98031610  0.06505263  0.44983686     0.80800
N944        N  0.98408948  0.05261748  0.46052234    -0.77600
C945        C  0.99776350  0.04206234  0.45826975     0.83200
N946        N  0.00744593  0.04382037  0.44513746    -0.77500
C947        C  0.00384570  0.05622317  0.43445898     0.83300
N948        N  0.99041275  0.06697399  0.43692676    -0.79200
C949        C  0.47759705  0.96065431  0.44315899     0.80800
N950        N  0.48702544  0.95991129  0.42972899    -0.77600
C951        C  0.50294239  0.96707090  0.42898163     0.83200
N952        N  0.50936773  0.97521137  0.44170190    -0.77500
C953        C  0.49998823  0.97646807  0.45507506     0.83300
N954        N  0.48409410  0.96906769  0.45581167    -0.79200
C955        C  0.56030629  0.05952396  0.55735814     0.80800
N956        N  0.55114427  0.05996708  0.57099683    -0.77600
C957        C  0.53551013  0.05209649  0.57194089     0.83200
N958        N  0.52915793  0.04383480  0.55926341    -0.77500
C959        C  0.53821277  0.04304856  0.54573405     0.83300
N960        N  0.55380042  0.05093836  0.54481392    -0.79200
C961        C  0.52355572  0.00405282  0.48560950     0.16500
C962        C  0.53515166  0.01453348  0.49377519    -0.32600
C963        C  0.53023277  0.02031362  0.50864889     0.20900
C964        C  0.51444896  0.01584752  0.51508058     0.03100
C965        C  0.50283800  0.00539581  0.50690097    -0.22300
C966        C  0.50776702  0.99959437  0.49203396     0.12200
S967        S  0.52709453  0.99586445  0.46740973    -0.05900
C968        C  0.50705608  0.98632600  0.46835972    -0.09400
C969        C  0.49823715  0.98938802  0.48220749    -0.26000
S970        S  0.51098790  0.02388638  0.53334837    -0.03200
C971        C  0.53106211  0.03334344  0.53241331    -0.16700
C972        C  0.53981457  0.03041741  0.51851257    -0.14700
H973        H  0.54748636  0.01800319  0.48875869     0.20700
H974        H  0.49051746  0.00190016  0.51193116     0.16800
H975        H  0.48547308  0.98459464  0.48486890     0.19300
H976        H  0.55259183  0.03518374  0.51586200     0.12600
C977        C  0.03506798  0.99228586  0.50108486     0.16500
C978        C  0.03411457  0.99955958  0.48605752    -0.32600
C979        C  0.02010557  0.01034063  0.48278868     0.20900
C980        C  0.00748259  0.01353796  0.49387323     0.03100
C981        C  0.00828903  0.00605365  0.50876809    -0.22300
C982        C  0.02239115  0.99550680  0.51210478     0.12200
S983        S  0.05160753  0.97985680  0.50788137    -0.05900
C984        C  0.04134990  0.97918373  0.52578711    -0.09400
C985        C  0.02585292  0.98794403  0.52620074    -0.26000
S986        S  0.99209569  0.02775411  0.48799670    -0.03200
C987        C  0.00282521  0.02957973  0.47041864    -0.16700
C988        C  0.01743190  0.01943518  0.46925277    -0.14700
H989        H  0.04409244  0.99732287  0.47745137     0.20700
H990        H  0.99860148  0.00873569  0.51754085     0.16800
H991        H  0.01773494  0.98916629  0.53645129     0.19300
H992        H  0.02598807  0.01918023  0.45923824     0.12600
C993        C  0.60374208  0.08112305  0.54752176     0.16500
C994        C  0.61881142  0.08725639  0.54030202    -0.32600
C995        C  0.62888641  0.09914800  0.54855371     0.20900
C996        C  0.62420061  0.10458350  0.56338381     0.03100
C997        C  0.60921088  0.09833786  0.57066404    -0.22300
C998        C  0.59907971  0.08652810  0.56236873     0.12200
S999        S  0.58949440  0.06716349  0.53920350    -0.05900
C1000       C  0.57702892  0.06856621  0.55588319    -0.09400
C1001       C  0.58380424  0.07931804  0.56726976    -0.26000
S1002       S  0.63789420  0.11934347  0.57129469    -0.03200
C1003       C  0.65011798  0.11829993  0.55443299    -0.16700
C1004       C  0.64377296  0.10692108  0.54336466    -0.14700
H1005       H  0.62240248  0.08310886  0.52867225     0.20700
H1006       H  0.60549943  0.10266129  0.58220917     0.16800
H1007       H  0.57773896  0.08196639  0.57841535     0.19300
H1008       H  0.64960376  0.10457615  0.53206499     0.12600
C1009       C  0.91376979  0.10047979  0.46840042     0.16500
C1010       C  0.92468128  0.08639108  0.47085583    -0.32600
C1011       C  0.94001972  0.08577402  0.46215647     0.20900
C1012       C  0.94426457  0.09858128  0.45148649     0.03100
C1013       C  0.93346590  0.11270820  0.44916171    -0.22300
C1014       C  0.91817450  0.11332143  0.45783503     0.12200
S1015       S  0.89426104  0.10341453  0.47727399    -0.05900
C1016       C  0.89201986  0.12210497  0.46655326    -0.09400
C1017       C  0.90585123  0.12577357  0.45680676    -0.26000
S1018       S  0.96309882  0.09528422  0.44170503    -0.03200
C1019       C  0.96547599  0.07650017  0.45219413    -0.16700
C1020       C  0.95222771  0.07308738  0.46269032    -0.14700
H1021       H  0.92128479  0.07627834  0.47904541     0.20700
H1022       H  0.93674019  0.12269616  0.44080163     0.16800
H1023       H  0.90674919  0.13677633  0.44906131     0.19300
H1024       H  0.95145074  0.06181973  0.47013817     0.12600
C1025       C  0.11535836  0.93574825  0.54556246     0.16500
C1026       C  0.13064740  0.92923647  0.53916156    -0.32600
C1027       C  0.14116949  0.91920123  0.54890849     0.20900
C1028       C  0.13667525  0.91590953  0.56435090     0.03100
C1029       C  0.12151885  0.92257999  0.57079081    -0.22300
C1030       C  0.11096093  0.93249764  0.56103290     0.12200
S1031       S  0.10048840  0.94756453  0.53553783    -0.05900
C1032       C  0.08817148  0.94810855  0.55236145    -0.09400
C1033       C  0.09543686  0.93960532  0.56502339    -0.26000
S1034       S  0.15068163  0.90290780  0.57409140    -0.03200
C1035       C  0.16283400  0.90180158  0.55721539    -0.16700
C1036       C  0.15625951  0.91122650  0.54475862    -0.14700
H1037       H  0.13404508  0.93164907  0.52704923     0.20700
H1038       H  0.11795954  0.91989939  0.58282098     0.16800
H1039       H  0.08954358  0.93841908  0.57647562     0.19300
H1040       H  0.16195463  0.91187578  0.53319746     0.12600
C1041       C  0.40795701  0.92852486  0.45931924     0.16500
C1042       C  0.42190642  0.93840457  0.46472717    -0.32600
C1043       C  0.43537177  0.94197777  0.45413745     0.20900
C1044       C  0.43489762  0.93596706  0.43889370     0.03100
C1045       C  0.42103058  0.92612751  0.43353034    -0.22300
C1046       C  0.40764629  0.92256511  0.44406843     0.12200
S1047       S  0.39034313  0.92254303  0.47018909    -0.05900
C1048       C  0.38258394  0.91184038  0.45399393    -0.09400
C1049       C  0.39321661  0.91305987  0.44096015    -0.26000
S1050       S  0.45234669  0.94145634  0.42782360    -0.03200
C1051       C  0.46059426  0.95204155  0.44382893    -0.16700
C1052       C  0.45013507  0.95125130  0.45705973    -0.14700
H1053       H  0.42227162  0.94304780  0.47664729     0.20700
H1054       H  0.42071489  0.92138892  0.42163543     0.16800
H1055       H  0.39064210  0.90720600  0.42973861     0.19300
H1056       H  0.45320944  0.95702786  0.46821699     0.12600
C1057       C  0.27263273  0.27379454  0.75757841     0.16500
C1058       C  0.27789988  0.27317703  0.74186195    -0.32600
C1059       C  0.28683730  0.25851092  0.73690732     0.20900
C1060       C  0.29043325  0.24514227  0.74716344     0.03100
C1061       C  0.28520040  0.24577085  0.76281583    -0.22300
C1062       C  0.27621952  0.26033692  0.76772798     0.12200
S1063       S  0.26144241  0.29025705  0.76598717    -0.05900
C1064       C  0.26153997  0.27875578  0.78329371    -0.09400
C1065       C  0.26992005  0.26310335  0.78243649    -0.26000
S1066       S  0.30146631  0.22853546  0.73905210    -0.03200
C1067       C  0.30124033  0.23959734  0.72155118    -0.16700
C1068       C  0.29300756  0.25538694  0.72213306    -0.14700
H1069       H  0.27510454  0.28361494  0.73384856     0.20700
H1070       H  0.28796265  0.23531371  0.77082287     0.16800
H1071       H  0.27124737  0.25410915  0.79206925     0.19300
H1072       H  0.29172922  0.26415600  0.71232842     0.12600
C1073       C  0.50522378  0.05187784  0.63778360     0.16500
C1074       C  0.52031387  0.05301931  0.62872675    -0.32600
C1075       C  0.51858711  0.05270097  0.61233218     0.20900
C1076       C  0.50258178  0.05095098  0.60536863     0.03100
C1077       C  0.48757045  0.05001882  0.61436750    -0.22300
C1078       C  0.48926647  0.05070119  0.63065135     0.12200
S1079       S  0.50430631  0.05218529  0.65783424    -0.05900
C1080       C  0.48221112  0.05126574  0.65641273    -0.09400
C1081       C  0.47606692  0.05051666  0.64123866    -0.26000
S1082       S  0.50303119  0.05006073  0.58547659    -0.03200
C1083       C  0.52502872  0.05247861  0.58633512    -0.16700
C1084       C  0.53158882  0.05380322  0.60139987    -0.14700
H1085       H  0.53280493  0.05418960  0.63419952     0.20700
H1086       H  0.47506916  0.04888973  0.60889398     0.16800
H1087       H  0.46258612  0.04993255  0.63811418     0.19300
H1088       H  0.54510559  0.05507204  0.60419113     0.12600
C1089       C  0.36018238  0.14360361  0.71365085     0.16500
C1090       C  0.34931277  0.15704612  0.71826198    -0.32600
C1091       C  0.34677905  0.17064338  0.70762900     0.20900
C1092       C  0.35469260  0.17084497  0.69307358     0.03100
C1093       C  0.36558654  0.15747933  0.68851081    -0.22300
C1094       C  0.36810495  0.14391870  0.69911302     0.12200
S1095       S  0.36495007  0.12581896  0.72469430    -0.05900
C1096       C  0.37776443  0.11876725  0.70953075    -0.09400
C1097       C  0.37816670  0.12978818  0.69670295    -0.26000
S1098       S  0.34986212  0.18832407  0.68177844    -0.03200
C1099       C  0.33705264  0.19557696  0.69682622    -0.16700
C1100       C  0.33666328  0.18484329  0.70986897    -0.14700
H1101       H  0.34307781  0.15689799  0.72960465     0.20700
H1102       H  0.37179645  0.15761116  0.67715308     0.16800
H1103       H  0.38543332  0.12764805  0.68608040     0.19300
H1104       H  0.32930355  0.18725201  0.72040113     0.12600
C1105       C  0.21189316  0.34683372  0.81862910     0.16500
C1106       C  0.20148569  0.35991099  0.82455820    -0.32600
C1107       C  0.19823116  0.37405965  0.81483460     0.20900
C1108       C  0.20501877  0.37523064  0.79985515     0.03100
C1109       C  0.21543101  0.36209566  0.79388558    -0.22300
C1110       C  0.21868224  0.34789328  0.80363434     0.12200
S1111       S  0.21722251  0.32860836  0.82862104    -0.05900
C1112       C  0.22875661  0.32223019  0.81244042    -0.09400
C1113       C  0.22837605  0.33377083  0.79999676    -0.26000
S1114       S  0.19932155  0.39349787  0.78995907    -0.03200
C1115       C  0.18758262  0.39951077  0.80617539    -0.16700
C1116       C  0.18827113  0.38790275  0.81851808    -0.14700
H1117       H  0.19610480  0.35907030  0.83623833     0.20700
H1118       H  0.22071397  0.36288194  0.78216792     0.16800
H1119       H  0.23475219  0.33188732  0.78885902     0.19300
H1120       H  0.18172635  0.38938087  0.82961745     0.12600
C1121       C  0.22797904  0.77253841  0.65928079     0.16500
C1122       C  0.22568819  0.78750729  0.65042282    -0.32600
C1123       C  0.22828642  0.78651004  0.63423263     0.20900
C1124       C  0.23324092  0.77136036  0.62709767     0.03100
C1125       C  0.23530284  0.75623267  0.63597147    -0.22300
C1126       C  0.23239509  0.75716087  0.65222216     0.12200
S1127       S  0.22573048  0.77139786  0.67910053    -0.05900
C1128       C  0.23032177  0.74983630  0.67799306    -0.09400
C1129       C  0.23353449  0.74394539  0.66294086    -0.26000
S1130       S  0.23620477  0.77321865  0.60725399    -0.03200
C1131       C  0.23025591  0.79449263  0.60865386    -0.16700
C1132       C  0.22642490  0.79970603  0.62375307    -0.14700
H1133       H  0.22202904  0.79945294  0.65592993     0.20700
H1134       H  0.23897988  0.74429652  0.63046698     0.16800
H1135       H  0.23682187  0.73083168  0.66006398     0.19300
H1136       H  0.22258137  0.81257122  0.62696185     0.12600
C1137       C  0.18744094  0.64574041  0.69350377     0.16500
C1138       C  0.19369405  0.66118357  0.68710989    -0.32600
C1139       C  0.20319453  0.67205882  0.69692628     0.20900
C1140       C  0.20639035  0.66770994  0.71240180     0.03100
C1141       C  0.20028876  0.65217856  0.71874943    -0.22300
C1142       C  0.19072596  0.64133618  0.70894990     0.12200
S1143       S  0.17515593  0.63112104  0.68369166    -0.05900
C1144       C  0.17446534  0.61882981  0.70054275    -0.09400
C1145       C  0.18337893  0.62587891  0.71304567    -0.26000
S1146       S  0.21750421  0.68297719  0.72255972    -0.03200
C1147       C  0.21781630  0.69545983  0.70581028    -0.16700
C1148       C  0.20981633  0.68789926  0.69304027    -0.14700
H1149       H  0.19104697  0.66468823  0.67507560     0.20700
H1150       H  0.20267311  0.64881336  0.73086180     0.16800
H1151       H  0.18424561  0.62015610  0.72458665     0.19300
H1152       H  0.20848045  0.69387038  0.68163616     0.12600
C1153       C  0.34604202  0.84627337  0.82475813     0.16500
C1154       C  0.35843547  0.85807544  0.82988859    -0.32600
C1155       C  0.36168029  0.87249714  0.82042242     0.20900
C1156       C  0.35290397  0.87514156  0.80651751     0.03100
C1157       C  0.34047225  0.86333217  0.80139515    -0.22300
C1158       C  0.33730176  0.84882056  0.81080949     0.12200
S1159       S  0.34041179  0.82792573  0.83449946    -0.05900
C1160       C  0.32613381  0.82348365  0.81960626    -0.09400
C1161       C  0.32586263  0.83576112  0.80776566    -0.26000
S1162       S  0.35892543  0.89335632  0.79664760    -0.03200
C1163       C  0.37356285  0.89738592  0.81132836    -0.16700
C1164       C  0.37350778  0.88519585  0.82325693    -0.14700
H1165       H  0.36533946  0.85603965  0.84073569     0.20700
H1166       H  0.33366392  0.86530396  0.79049287     0.16800
H1167       H  0.31773603  0.83518294  0.79750231     0.19300
H1168       H  0.38179894  0.88545262  0.83341605     0.12600
C1169       C  0.27130250  0.77961740  0.76952199     0.16500
C1170       C  0.26568539  0.77882128  0.75393310    -0.32600
C1171       C  0.25625231  0.76427260  0.74935958     0.20900
C1172       C  0.25232766  0.75122851  0.75988185     0.03100
C1173       C  0.25764973  0.75218650  0.77552813    -0.22300
C1174       C  0.26732988  0.76657547  0.78002734     0.12200
S1175       S  0.28409291  0.79544462  0.77711174    -0.05900
C1176       C  0.28424070  0.78427229  0.79459635    -0.09400
C1177       C  0.27459998  0.76923013  0.79441919    -0.26000
S1178       S  0.24167805  0.73419415  0.75181951    -0.03200
C1179       C  0.24262261  0.74465411  0.73400333    -0.16700
C1180       C  0.25058941  0.76063829  0.73453097    -0.14700
H1181       H  0.26898209  0.78883849  0.74561147     0.20700
H1182       H  0.25483806  0.74189964  0.78372266     0.16800
H1183       H  0.27343381  0.76036010  0.80416965     0.19300
H1184       H  0.25261192  0.76894859  0.72449064     0.12600
C1185       C  0.24138750  0.24176944  0.85283560     0.16500
C1186       C  0.24033792  0.22556259  0.85983965    -0.32600
C1187       C  0.24114332  0.22469246  0.87616219     0.20900
C1188       C  0.24302122  0.23929090  0.88523212     0.03100
C1189       C  0.24368972  0.25565750  0.87820836    -0.22300
C1190       C  0.24276428  0.25654150  0.86177113     0.12200
S1191       S  0.24157175  0.24514758  0.83316280    -0.05900
C1192       C  0.24319815  0.26677943  0.83681951    -0.09400
C1193       C  0.24353695  0.27108750  0.85257651    -0.26000
S1194       S  0.24450057  0.23512510  0.90489647    -0.03200
C1195       C  0.24217082  0.21358362  0.90071384    -0.16700
C1196       C  0.24049702  0.21000360  0.88494289    -0.14700
H1197       H  0.23916942  0.21406434  0.85283022     0.20700
H1198       H  0.24506824  0.26713507  0.88520723     0.16800
H1199       H  0.24479450  0.28403514  0.85700633     0.19300
H1200       H  0.23906970  0.19725558  0.88009550     0.12600
C1201       C  0.15088597  0.08777096  0.93556744     0.16500
C1202       C  0.13544210  0.08220774  0.92885755    -0.32600
C1203       C  0.12503586  0.07106653  0.93766481     0.20900
C1204       C  0.12982434  0.06555841  0.95247756     0.03100
C1205       C  0.14540386  0.07102200  0.95916505    -0.22300
C1206       C  0.15578097  0.08232568  0.95037378     0.12200
S1207       S  0.16481310  0.10182814  0.92692049    -0.05900
C1208       C  0.17749405  0.10053837  0.94341272    -0.09400
C1209       C  0.17111857  0.08958515  0.95494943    -0.26000
S1210       S  0.11494379  0.05260130  0.96144298    -0.03200
C1211       C  0.10210007  0.05476927  0.94508248    -0.16700
C1212       C  0.10924204  0.06486965  0.93333280    -0.14700
H1213       H  0.13155712  0.08662236  0.91736198     0.20700
H1214       H  0.14911516  0.06689660  0.97079375     0.16800
H1215       H  0.17717983  0.08728481  0.96615674     0.19300
H1216       H  0.10300150  0.06793774  0.92235274     0.12600
C1217       C  0.03532316  0.00876270  0.98752158     0.16500
C1218       C  0.02281767  0.99965882  0.99599755    -0.32600
C1219       C  0.02711315  0.99409223  0.01110445     0.20900
C1220       C  0.04313402  0.99747109  0.01751116     0.03100
C1221       C  0.05565300  0.00658405  0.00902440    -0.22300
C1222       C  0.05137158  0.01212214  0.99388632     0.12200
S1223       S  0.03259372  0.01650472  0.96902023    -0.05900
C1224       C  0.05333716  0.02433431  0.96977136    -0.09400
C1225       C  0.06180039  0.02107205  0.98374077    -0.26000
S1226       S  0.04576960  0.98971849  0.03605555    -0.03200
C1227       C  0.02505231  0.98183438  0.03518424    -0.16700
C1228       C  0.01668233  0.98509602  0.02117373    -0.14700
H1229       H  0.01029095  0.99702049  0.99102680     0.20700
H1230       H  0.06817508  0.00922879  0.01399792     0.16800
H1231       H  0.07485918  0.02498671  0.98631997     0.19300
H1232       H  0.00363091  0.98120422  0.01852832     0.12600
C1233       C  0.92632611  0.91853608  0.06579838     0.16500
C1234       C  0.94187648  0.92328153  0.07277457    -0.32600
C1235       C  0.95263555  0.93452009  0.06449362     0.20900
C1236       C  0.94810924  0.94085203  0.04987991     0.03100
C1237       C  0.93240493  0.93616773  0.04289573    -0.22300
C1238       C  0.92161787  0.92478573  0.05119829     0.12200
S1239       S  0.91205134  0.90456018  0.07391240    -0.05900
C1240       C  0.89942233  0.90684396  0.05747071    -0.09400
C1241       C  0.90605414  0.91815058  0.04633388    -0.26000
S1242       S  0.96334311  0.95397989  0.04165334    -0.03200
C1243       C  0.97585920  0.95088542  0.05812282    -0.16700
C1244       C  0.96844313  0.94024230  0.06929491    -0.14700
H1245       H  0.94553747  0.91823354  0.08412307     0.20700
H1246       H  0.92887534  0.94098686  0.03143557     0.16800
H1247       H  0.90005965  0.92104868  0.03520593     0.19300
H1248       H  0.97442345  0.93662018  0.08026114     0.12600
C1249       C  0.44249268  0.07106358  0.04904346     0.16500
C1250       C  0.42771038  0.07763394  0.04174154    -0.32600
C1251       C  0.41833636  0.09028856  0.04970483     0.20900
C1252       C  0.42353176  0.09615891  0.06424807     0.03100
C1253       C  0.43822260  0.08950880  0.07158710    -0.22300
C1254       C  0.44755128  0.07682848  0.06366043     0.12200
S1255       S  0.45588008  0.05603728  0.04115743    -0.05900
C1256       C  0.46846168  0.05747400  0.05774157    -0.09400
C1257       C  0.46236750  0.06901994  0.06875994    -0.26000
S1258       S  0.41072947  0.11179617  0.07185909    -0.03200
C1259       C  0.39804063  0.11038326  0.05536622    -0.16700
C1260       C  0.40364295  0.09834514  0.04456105    -0.14700
H1261       H  0.42376049  0.07315972  0.03031814     0.20700
H1262       H  0.44227077  0.09411094  0.08294017     0.16800
H1263       H  0.46863792  0.07184308  0.07976055     0.19300
H1264       H  0.39742941  0.09574398  0.03349238     0.12600
C1265       C  0.53296969  0.95879468  0.89446134     0.16500
C1266       C  0.52852130  0.95791367  0.87856375    -0.32600
C1267       C  0.51101214  0.95904329  0.87472326     0.20900
C1268       C  0.49852327  0.96067138  0.88623955     0.03100
C1269       C  0.50298702  0.96185043  0.90205637    -0.22300
C1270       C  0.52045847  0.96098694  0.90586080     0.12200
S1271       S  0.55340697  0.95739882  0.90165832    -0.05900
C1272       C  0.54498510  0.96026354  0.92014832    -0.09400
C1273       C  0.52727543  0.96199499  0.92058688    -0.26000
S1274       S  0.47796751  0.96071057  0.87942845    -0.03200
C1275       C  0.48621787  0.95891855  0.86080990    -0.16700
C1276       C  0.50400134  0.95831022  0.85999025    -0.14700
H1277       H  0.53825316  0.95633579  0.86960876     0.20700
H1278       H  0.49324250  0.96326690  0.91102708     0.16800
H1279       H  0.51976538  0.96376308  0.93114488     0.19300
H1280       H  0.51131551  0.95683143  0.84928519     0.12600
C1281       C  0.62263637  0.92764921  0.94214338     0.16500
C1282       C  0.63479507  0.91543393  0.93754770    -0.32600
C1283       C  0.64878668  0.91252669  0.94751458     0.20900
C1284       C  0.65087902  0.92167760  0.96125891     0.03100
C1285       C  0.63875672  0.93403021  0.96580660    -0.22300
C1286       C  0.62448026  0.93662060  0.95602704     0.12200
S1287       S  0.60423810  0.93212991  0.93214119    -0.05900
C1288       C  0.59862068  0.94593698  0.94700021    -0.09400
C1289       C  0.61070538  0.94717511  0.95888977    -0.26000
S1290       S  0.66863717  0.91591806  0.97182455    -0.03200
C1291       C  0.67306968  0.90079020  0.95770959    -0.16700
C1292       C  0.66141593  0.90053564  0.94543412    -0.14700
H1293       H  0.63317396  0.90817436  0.92686835     0.20700
H1294       H  0.64015215  0.94097487  0.97668151     0.16800
H1295       H  0.60929517  0.95502522  0.96923810     0.19300
H1296       H  0.66203037  0.89195102  0.93552370     0.12600
C1297       C  0.54740463  0.99014636  0.99988660     0.16500
C1298       C  0.54665845  0.99646045  0.01524339    -0.32600
C1299       C  0.53193389  0.00568266  0.01966379     0.20900
C1300       C  0.51853788  0.00845326  0.00927614     0.03100
C1301       C  0.51926065  0.00210633  0.99396289    -0.22300
C1302       C  0.53397670  0.99293470  0.98954395     0.12200
S1303       S  0.56419524  0.97883883  0.99210399    -0.05900
C1304       C  0.55299039  0.97786956  0.97471879    -0.09400
C1305       C  0.53708458  0.98591487  0.97513965    -0.26000
S1306       S  0.50190246  0.02009461  0.01679432    -0.03200
C1307       C  0.51307910  0.02134240  0.03416927    -0.16700
C1308       C  0.52886475  0.01302798  0.03398256    -0.14700
H1309       H  0.55712861  0.99435842  0.02336202     0.20700
H1310       H  0.50883503  0.00429711  0.98581297     0.16800
H1311       H  0.52825712  0.98668737  0.96537038     0.19300
H1312       H  0.53769418  0.01249429  0.04376020     0.12600
C1313       C  0.05082214  0.96433213  0.13923964     0.16500
C1314       C  0.03605781  0.96775129  0.13028000    -0.32600
C1315       C  0.03637172  0.96322319  0.11435499     0.20900
C1316       C  0.05085450  0.95591119  0.10765289     0.03100
C1317       C  0.06542814  0.95224749  0.11663744    -0.22300
C1318       C  0.06501474  0.95651709  0.13253761     0.12200
S1319       S  0.05337013  0.96911980  0.15865832    -0.05900
C1320       C  0.07358732  0.96010040  0.15773039    -0.09400
C1321       C  0.07799070  0.95392152  0.14307847    -0.26000
S1322       S  0.04929668  0.95240162  0.08802474    -0.03200
C1323       C  0.02872903  0.96040132  0.08882181    -0.16700
C1324       C  0.02345492  0.96561624  0.10357851    -0.14700
H1325       H  0.02488582  0.97376181  0.13545638     0.20700
H1326       H  0.07668669  0.94643614  0.11141788     0.16800
H1327       H  0.09018495  0.94804381  0.14019245     0.19300
H1328       H  0.01112371  0.97139466  0.10613565     0.12600
C1329       C  0.05136202  0.04619235  0.37910421     0.16500
C1330       C  0.04136493  0.03840698  0.39079868    -0.32600
C1331       C  0.03213485  0.04916177  0.40085645     0.20900
C1332       C  0.03251430  0.06688532  0.39919281     0.03100
C1333       C  0.04273824  0.07469077  0.38763973    -0.22300
C1334       C  0.05224102  0.06392920  0.37775925     0.12200
S1335       S  0.06338396  0.03537739  0.36565523    -0.05900
C1336       C  0.07002590  0.05496116  0.35839074    -0.09400
C1337       C  0.06311022  0.06904102  0.36598992    -0.26000
S1338       S  0.01998254  0.07760164  0.41236995    -0.03200
C1339       C  0.01465562  0.05799787  0.42045092    -0.16700
C1340       C  0.02206576  0.04400980  0.41315366    -0.14700
H1341       H  0.04085596  0.02456856  0.39204787     0.20700
H1342       H  0.04331529  0.08853131  0.38644141     0.16800
H1343       H  0.06574774  0.08230618  0.36295155     0.19300
H1344       H  0.02015937  0.03075941  0.41667756     0.12600
C1345       C  0.31230799  0.23133189  0.12490007     0.16500
C1346       C  0.30463436  0.23959770  0.13771123    -0.32600
C1347       C  0.31485625  0.25100963  0.14640422     0.20900
C1348       C  0.33181313  0.25430915  0.14230080     0.03100
C1349       C  0.33952836  0.24586135  0.12969392    -0.22300
C1350       C  0.32946071  0.23420804  0.12124496     0.12200
S1351       S  0.30226890  0.21699758  0.11279402    -0.05900
C1352       C  0.32157590  0.21451230  0.10313125    -0.09400
C1353       C  0.33488345  0.22443833  0.10891985    -0.26000
S1354       S  0.34194477  0.26893529  0.15391348    -0.03200
C1355       C  0.32333292  0.27032275  0.16477135    -0.16700
C1356       C  0.30996527  0.26003477  0.15945094    -0.14700
H1357       H  0.29133840  0.23717323  0.14081647     0.20700
H1358       H  0.35286042  0.24819501  0.12665501     0.16800
H1359       H  0.34786616  0.22450688  0.10430814     0.19300
H1360       H  0.29733771  0.25929791  0.16478067     0.12600
C1361       C  0.19911634  0.17963566  0.31135809     0.16500
C1362       C  0.18727943  0.16754293  0.31710079    -0.32600
C1363       C  0.18303774  0.15367106  0.30743106     0.20900
C1364       C  0.19026263  0.15187435  0.29268750     0.03100
C1365       C  0.20195663  0.16411975  0.28684760    -0.22300
C1366       C  0.20620679  0.17803236  0.29653364     0.12200
S1367       S  0.20604291  0.19718576  0.32142570    -0.05900
C1368       C  0.21853630  0.20266597  0.30545852    -0.09400
C1369       C  0.21733521  0.19127358  0.29303781    -0.26000
S1370       S  0.18383465  0.13376044  0.28304598    -0.03200
C1371       C  0.17120218  0.12860610  0.29901853    -0.16700
C1372       C  0.17201287  0.14046807  0.31107495    -0.14700
H1373       H  0.18170584  0.16882949  0.32866104     0.20700
H1374       H  0.20758955  0.16279080  0.27531856     0.16800
H1375       H  0.22416257  0.19263518  0.28204138     0.19300
H1376       H  0.16514301  0.13937561  0.32206850     0.12600
C1377       C  0.26519750  0.25091683  0.25154963     0.16500
C1378       C  0.27175812  0.25091750  0.23624279    -0.32600
C1379       C  0.28169653  0.26508920  0.23147756     0.20900
C1380       C  0.28480865  0.27875559  0.24143189     0.03100
C1381       C  0.27807678  0.27885490  0.25666512    -0.22300
C1382       C  0.26832681  0.26458717  0.26148919     0.12200
S1383       S  0.25353281  0.23458329  0.25984679    -0.05900
C1384       C  0.25295948  0.24623822  0.27694838    -0.09400
C1385       C  0.26131304  0.26200038  0.27603900    -0.26000
S1386       S  0.29783098  0.29433336  0.23369246    -0.03200
C1387       C  0.29922705  0.28226579  0.21686672    -0.16700
C1388       C  0.28985037  0.26707830  0.21733275    -0.14700
H1389       H  0.26951911  0.24017924  0.22849562     0.20700
H1390       H  0.28064358  0.28941676  0.26453182     0.16800
H1391       H  0.26242306  0.27101602  0.28560158     0.19300
H1392       H  0.28941599  0.25773661  0.20799028     0.12600
C1393       C  0.36337966  0.34345854  0.19066435     0.16500
C1394       C  0.37596782  0.35547491  0.18636352    -0.32600
C1395       C  0.37888739  0.36929720  0.19647119     0.20900
C1396       C  0.36970322  0.37117389  0.21026889     0.03100
C1397       C  0.35709609  0.35910080  0.21460723    -0.22300
C1398       C  0.35418278  0.34521520  0.20448078     0.12200
S1399       S  0.35790911  0.32587292  0.17989762    -0.05900
C1400       C  0.34302792  0.32070098  0.19414343    -0.09400
C1401       C  0.34249053  0.33215320  0.20656250    -0.26000
S1402       S  0.37530390  0.38896638  0.22083267    -0.03200
C1403       C  0.39023593  0.39382797  0.20650709    -0.16700
C1404       C  0.39062851  0.38219144  0.19426206    -0.14700
H1405       H  0.38318263  0.35411481  0.17558677     0.20700
H1406       H  0.34988143  0.36046587  0.22538000     0.16800
H1407       H  0.33394825  0.33103446  0.21654214     0.19300
H1408       H  0.39907292  0.38303426  0.18420507     0.12600
C1409       C  0.32440909  0.75894732  0.36583885     0.16500
C1410       C  0.32386141  0.76302319  0.38186214    -0.32600
C1411       C  0.32111920  0.78030148  0.38592801     0.20900
C1412       C  0.31904820  0.79286199  0.37451949     0.03100
C1413       C  0.31910093  0.78872017  0.35861894    -0.22300
C1414       C  0.32184041  0.77155891  0.35458676     0.12200
S1415       S  0.32871656  0.73907453  0.35822350    -0.05900
C1416       C  0.32677652  0.74795619  0.33976187    -0.09400
C1417       C  0.32296416  0.76531895  0.33970372    -0.26000
S1418       S  0.31742308  0.81321812  0.38152474    -0.03200
C1419       C  0.31926856  0.80486636  0.40012371    -0.16700
C1420       C  0.32094430  0.78712551  0.40076778    -0.14700
H1421       H  0.32589818  0.75326537  0.39073266     0.20700
H1422       H  0.31752768  0.79855521  0.34973125     0.16800
H1423       H  0.32149909  0.77311818  0.32925758     0.19300
H1424       H  0.32270741  0.77976578  0.41142766     0.12600
C1425       C  0.36902159  0.67491552  0.31579212     0.16500
C1426       C  0.38013775  0.66201689  0.32114231    -0.32600
C1427       C  0.38472057  0.64903648  0.31060060     0.20900
C1428       C  0.37843403  0.64881702  0.29542980     0.03100
C1429       C  0.36739438  0.66178764  0.29004373    -0.22300
C1430       C  0.36289089  0.67484411  0.30056234     0.12200
S1431       S  0.36193867  0.69174818  0.32678110    -0.05900
C1432       C  0.35069659  0.69895126  0.31066026    -0.09400
C1433       C  0.35241819  0.68864089  0.29752397    -0.26000
S1434       S  0.38534781  0.63178359  0.28456360    -0.03200
C1435       C  0.39699628  0.62495933  0.30057351    -0.16700
C1436       C  0.39542287  0.63544532  0.31359857    -0.14700
H1437       H  0.38501491  0.66210248  0.33300863     0.20700
H1438       H  0.36253372  0.66170929  0.27817367     0.16800
H1439       H  0.34634149  0.69110240  0.28634313     0.19300
H1440       H  0.40167554  0.63322087  0.32473354     0.12600
C1441       C  0.20915205  0.84498376  0.19731559     0.16500
C1442       C  0.19642539  0.85670841  0.19286507    -0.32600
C1443       C  0.19378323  0.87102597  0.20244946     0.20900
C1444       C  0.20338531  0.87366375  0.21587388     0.03100
C1445       C  0.21611833  0.86186617  0.22037738    -0.22300
C1446       C  0.21872488  0.84745696  0.21079847     0.12200
S1447       S  0.21443367  0.82698856  0.18706981    -0.05900
C1448       C  0.22972524  0.82258398  0.20109619    -0.09400
C1449       C  0.23050205  0.83455797  0.21309226    -0.26000
S1450       S  0.19805557  0.89195703  0.22582370    -0.03200
C1451       C  0.18263271  0.89597699  0.21178111    -0.16700
C1452       C  0.18192488  0.88371752  0.20005032    -0.14700
H1453       H  0.18890949  0.85476633  0.18235840     0.20700
H1454       H  0.22365130  0.86382558  0.23086647     0.16800
H1455       H  0.23937778  0.83399911  0.22283091     0.19300
H1456       H  0.17314776  0.88396160  0.19023898     0.12600
C1457       C  0.28392175  0.77705059  0.24980435     0.16500
C1458       C  0.28883982  0.77524392  0.26548482    -0.32600
C1459       C  0.30053288  0.76217431  0.26919200     0.20900
C1460       C  0.30723084  0.75144625  0.25782243     0.03100
C1461       C  0.30245721  0.75338664  0.24207823    -0.22300
C1462       C  0.29057286  0.76634178  0.23838885     0.12200
S1463       S  0.26924219  0.79157683  0.24306526    -0.05900
C1464       C  0.27192453  0.78305763  0.22464491    -0.09400
C1465       C  0.28375522  0.76975411  0.22391627    -0.26000
S1466       S  0.32076285  0.73595960  0.26494916    -0.03200
C1467       C  0.31724954  0.74400646  0.28344996    -0.16700
C1468       C  0.30629397  0.75804147  0.28384479    -0.14700
H1469       H  0.28352185  0.78345283  0.27446405     0.20700
H1470       H  0.30750082  0.74494825  0.23314906     0.16800
H1471       H  0.28696590  0.76272526  0.21340418     0.19300
H1472       H  0.30244993  0.76471279  0.29437901     0.12600
C1473       C  0.24676232  0.76094367  0.14609902     0.16500
C1474       C  0.24050126  0.75419748  0.13205728    -0.32600
C1475       C  0.24916220  0.74013792  0.12563270     0.20900
C1476       C  0.26374838  0.73333759  0.13258498     0.03100
C1477       C  0.27001786  0.74008268  0.14669804    -0.22300
C1478       C  0.26104843  0.75390057  0.15336221     0.12200
S1479       S  0.23749998  0.77745971  0.15605741    -0.05900
C1480       C  0.25272203  0.77463489  0.17045293    -0.09400
C1481       C  0.26451439  0.76169274  0.16739948    -0.26000
S1482       S  0.27224749  0.71615270  0.12283470    -0.03200
C1483       C  0.25561696  0.71789295  0.10961327    -0.16700
C1484       C  0.24437685  0.73125374  0.11255891    -0.14700
H1485       H  0.22911684  0.75943757  0.12655579     0.20700
H1486       H  0.28115828  0.73458127  0.15239502     0.16800
H1487       H  0.27488474  0.75799620  0.17514838     0.19300
H1488       H  0.23313581  0.73417667  0.10558027     0.12600
C1489       C  0.32808461  0.73923646  0.88841644     0.16500
C1490       C  0.33246595  0.75229556  0.87781987    -0.32600
C1491       C  0.31993257  0.75749976  0.86706935     0.20900
C1492       C  0.30377412  0.74993390  0.86673662     0.03100
C1493       C  0.29927212  0.73705347  0.87755641    -0.22300
C1494       C  0.31179449  0.73193836  0.88843246     0.12200
S1495       S  0.34174889  0.73078932  0.90194441    -0.05900
C1496       C  0.32530333  0.71742813  0.90795743    -0.09400
C1497       C  0.31005047  0.71949262  0.89977705    -0.26000
S1498       S  0.29078010  0.75746623  0.85213036    -0.03200
C1499       C  0.30721166  0.77115490  0.84666507    -0.16700
C1500       C  0.32189799  0.76982267  0.85572696    -0.14700
H1501       H  0.34516867  0.75803248  0.87784670     0.20700
H1502       H  0.28664944  0.73115312  0.87739138     0.16800
H1503       H  0.29845716  0.71207257  0.90180098     0.19300
H1504       H  0.33356948  0.77717760  0.85385080     0.12600
C1505       C  0.46007130  0.59415745  0.96865681     0.16500
C1506       C  0.44556172  0.60040730  0.97650859    -0.32600
C1507       C  0.43527838  0.61238641  0.96863439     0.20900
C1508       C  0.43945626  0.61813715  0.95371274     0.03100
C1509       C  0.45398375  0.61188185  0.94584529    -0.22300
C1510       C  0.46410269  0.59965268  0.95362169     0.12200
S1511       S  0.47382557  0.57924568  0.97609871    -0.05900
C1512       C  0.48504536  0.58013272  0.95868489    -0.09400
C1513       C  0.47843220  0.59160595  0.94779079    -0.26000
S1514       S  0.42529472  0.63262067  0.94614620    -0.03200
C1515       C  0.41338584  0.63064432  0.96312663    -0.16700
C1516       C  0.42029129  0.61946655  0.97408962    -0.14700
H1517       H  0.44229621  0.59593387  0.98816382     0.20700
H1518       H  0.45711937  0.61618099  0.93410725     0.16800
H1519       H  0.48374022  0.59386027  0.93623229     0.19300
H1520       H  0.41460731  0.61656786  0.98537767     0.12600
C1521       C  0.51709970  0.45748647  0.13220051     0.16500
C1522       C  0.52932265  0.45134436  0.12152321    -0.32600
C1523       C  0.53758371  0.46337519  0.11179086     0.20900
C1524       C  0.53365345  0.48071821  0.11250064     0.03100
C1525       C  0.52171261  0.48689630  0.12340885    -0.22300
C1526       C  0.51362361  0.47489858  0.13327759     0.12200
S1527       S  0.50522956  0.44493804  0.14462645    -0.05900
C1528       C  0.49581783  0.46338700  0.15164995    -0.09400
C1529       C  0.50156305  0.47838406  0.14455536    -0.26000
S1530       S  0.54399524  0.49305553  0.09883581    -0.03200
C1531       C  0.55402530  0.47472872  0.09232315    -0.16700
C1532       C  0.54952343  0.45989847  0.10039283    -0.14700
H1533       H  0.53211631  0.43776223  0.12070486     0.20700
H1534       H  0.51868483  0.50044114  0.12403133     0.16800
H1535       H  0.49693724  0.49112210  0.14730496     0.19300
H1536       H  0.55415971  0.44717251  0.09760225     0.12600
C1537       C  0.55997766  0.50690588  0.01362152     0.16500
C1538       C  0.55897999  0.51246079  0.99798658    -0.32600
C1539       C  0.54518225  0.52314592  0.99383511     0.20900
C1540       C  0.53302172  0.52811546  0.00479809     0.03100
C1541       C  0.53404345  0.52261949  0.02038229    -0.22300
C1542       C  0.54774672  0.51190790  0.02449538     0.12200
S1543       S  0.57537698  0.49351677  0.02101308    -0.05900
C1544       C  0.56511310  0.49461780  0.03889787    -0.09400
C1545       C  0.55063877  0.50496295  0.03898610    -0.26000
S1546       S  0.51730444  0.54108429  0.99760724    -0.03200
C1547       C  0.52711018  0.53987007  0.97953831    -0.16700
C1548       C  0.54184445  0.52985409  0.97924891    -0.14700
H1549       H  0.56845254  0.50853552  0.98942886     0.20700
H1550       H  0.52450017  0.52644614  0.02891825     0.16800
H1551       H  0.54244022  0.50704476  0.04905843     0.19300
H1552       H  0.54973094  0.52770578  0.96898912     0.12600
C1553       C  0.14091421  0.61509224  0.06456168     0.16500
C1554       C  0.12548187  0.60956937  0.07153446    -0.32600
C1555       C  0.11660085  0.59593719  0.06447241     0.20900
C1556       C  0.12281646  0.58819650  0.05102649     0.03100
C1557       C  0.13831750  0.59363359  0.04412067    -0.22300
C1558       C  0.14720669  0.60725093  0.05119887     0.12200
S1559       S  0.15348610  0.63147173  0.07128303    -0.05900
C1560       C  0.16751576  0.62770812  0.05600759    -0.09400
C1561       C  0.16247445  0.61441147  0.04623646    -0.26000
S1562       S  0.10985672  0.57232459  0.04391581    -0.03200
C1563       C  0.09586553  0.57604996  0.05923754    -0.16700
C1564       C  0.10120756  0.58893725  0.06931969    -0.14700
H1565       H  0.12056176  0.61570380  0.08196828     0.20700
H1566       H  0.14317179  0.58758950  0.03361712     0.16800
H1567       H  0.16959580  0.61014712  0.03607957     0.19300
H1568       H  0.09400884  0.59326336  0.07941545     0.12600
C1569       C  0.05347763  0.46531589  0.90891738     0.16500
C1570       C  0.06925660  0.46418755  0.90107271    -0.32600
C1571       C  0.06890274  0.46290937  0.88472110     0.20900
C1572       C  0.05355422  0.46307358  0.87647981     0.03100
C1573       C  0.03774119  0.46386099  0.88435939    -0.22300
C1574       C  0.03807881  0.46482786  0.90075798     0.12200
S1575       S  0.05121639  0.46739658  0.92867854    -0.05900
C1576       C  0.02927209  0.46709495  0.92600065    -0.09400
C1577       C  0.02409907  0.46560702  0.91054630    -0.26000
S1578       S  0.05598983  0.46234913  0.85660340    -0.03200
C1579       C  0.07786877  0.46134116  0.85950845    -0.16700
C1580       C  0.08288575  0.46165747  0.87504995    -0.14700
H1581       H  0.08128935  0.46436881  0.90743237     0.20700
H1582       H  0.02571571  0.46379455  0.87799168     0.16800
H1583       H  0.01084705  0.46541570  0.90668035     0.19300
H1584       H  0.09609409  0.46134888  0.87903548     0.12600
C1585       C  0.02042838  0.50362758  0.00257762     0.16500
C1586       C  0.02044236  0.51086028  0.01760172    -0.32600
C1587       C  0.03422793  0.52170602  0.02155276     0.20900
C1588       C  0.04737214  0.52522253  0.01101819     0.03100
C1589       C  0.04733694  0.51803529  0.99603015    -0.22300
C1590       C  0.03362627  0.50716628  0.99211430     0.12200
S1591       S  0.00499946  0.49004558  0.99542464    -0.05900
C1592       C  0.01656579  0.48906670  0.97820603    -0.09400
C1593       C  0.03149376  0.49886845  0.97817528    -0.26000
S1594       S  0.06300416  0.53853940  0.01802689    -0.03200
C1595       C  0.05176896  0.53944744  0.03540082    -0.16700
C1596       C  0.03666913  0.52986713  0.03557867    -0.14700
H1597       H  0.01020683  0.50811295  0.02585973     0.20700
H1598       H  0.05760811  0.52073040  0.98779157     0.16800
H1599       H  0.04037258  0.49989639  0.96842912     0.19300
H1600       H  0.02798733  0.52884571  0.04546837     0.12600
C1601       C  0.65456681  0.42546664  0.04816733     0.16500
C1602       C  0.64188329  0.43693762  0.04291750    -0.32600
C1603       C  0.62851722  0.44105850  0.05335059     0.20900
C1604       C  0.62778962  0.43401718  0.06827565     0.03100
C1605       C  0.64038610  0.42254810  0.07346966    -0.22300
C1606       C  0.65373619  0.41850299  0.06310590     0.12200
S1607       S  0.67206899  0.41892688  0.03756282    -0.05900
C1608       C  0.67830242  0.40675501  0.05350208    -0.09400
C1609       C  0.66722057  0.40779601  0.06620329    -0.26000
S1610       S  0.61073810  0.44066735  0.07925258    -0.03200
C1611       C  0.60439668  0.45315691  0.06361475    -0.16700
C1612       C  0.61509142  0.45208024  0.05059705    -0.14700
H1613       H  0.64246154  0.44248088  0.03127990     0.20700
H1614       H  0.63986626  0.41708547  0.08514336     0.16800
H1615       H  0.66892548  0.40116763  0.07724927     0.19300
H1616       H  0.61319576  0.45904060  0.03973511     0.12600
C1617       C  0.92219647  0.42623845  0.96431556     0.16500
C1618       C  0.93501940  0.43728933  0.97003853    -0.32600
C1619       C  0.94883563  0.44137251  0.96003972     0.20900
C1620       C  0.94973318  0.43487468  0.94497939     0.03100
C1621       C  0.93687641  0.42396192  0.93923307    -0.22300
C1622       C  0.92319538  0.41974260  0.94926909     0.12200
S1623       S  0.90473951  0.41907966  0.97473596    -0.05900
C1624       C  0.89886635  0.40701525  0.95870548    -0.09400
C1625       C  0.90987054  0.40879477  0.94597695    -0.26000
S1626       S  0.96768385  0.44091045  0.93480898    -0.03200
C1627       C  0.97420873  0.45231741  0.95101267    -0.16700
C1628       C  0.96284193  0.45144239  0.96356643    -0.14700
H1629       H  0.93440011  0.44225802  0.98184052     0.20700
H1630       H  0.93765640  0.41874156  0.92752712     0.16800
H1631       H  0.90841538  0.40220952  0.93492901     0.19300
H1632       H  0.96484109  0.45760927  0.97475227     0.12600
C1633       C  0.02517617  0.53318963  0.61897437     0.16500
C1634       C  0.03009432  0.53402485  0.63477495    -0.32600
C1635       C  0.04763048  0.53648117  0.63805736     0.20900
C1636       C  0.05962398  0.53827879  0.62611651     0.03100
C1637       C  0.05476842  0.53711749  0.61039307    -0.22300
C1638       C  0.03734067  0.53442275  0.60713074     0.12200
S1639       S  0.00454970  0.53073405  0.61239775    -0.05900
C1640       C  0.01254251  0.53091279  0.59355445    -0.09400
C1641       C  0.03021050  0.53291971  0.59256054    -0.26000
S1642       S  0.08005084  0.54217372  0.63231593    -0.03200
C1643       C  0.07255297  0.54101262  0.65126164    -0.16700
C1644       C  0.05505260  0.53778795  0.65260576    -0.14700
H1645       H  0.02067302  0.53292298  0.64407547     0.20700
H1646       H  0.06416896  0.53838105  0.60108707     0.16800
H1647       H  0.03743515  0.53348796  0.58171660     0.19300
H1648       H  0.04810198  0.53693256  0.66357758     0.12600
C1649       C  0.92968023  0.55158552  0.56032187     0.16500
C1650       C  0.91430348  0.55803392  0.55404188    -0.32600
C1651       C  0.90376867  0.56791008  0.56386428     0.20900
C1652       C  0.90822986  0.57094382  0.57931524     0.03100
C1653       C  0.92342498  0.56424982  0.58566072    -0.22300
C1654       C  0.93409740  0.55467458  0.57577135     0.12200
S1655       S  0.94485949  0.54048121  0.55004228    -0.05900
C1656       C  0.95740062  0.54017864  0.56668798    -0.09400
C1657       C  0.94992464  0.54810758  0.57951270    -0.26000
S1658       S  0.89449738  0.58422445  0.58900570    -0.03200
C1659       C  0.88264322  0.58599092  0.57203199    -0.16700
C1660       C  0.88896917  0.57637310  0.55964932    -0.14700
H1661       H  0.91098468  0.55592891  0.54189666     0.20700
H1662       H  0.92706548  0.56689995  0.59763975     0.16800
H1663       H  0.95595997  0.54945572  0.59085751     0.19300
H1664       H  0.88354253  0.57623454  0.54799057     0.12600
C1665       C  0.01075361  0.50019386  0.51395082     0.16500
C1666       C  0.01135189  0.49403373  0.49857092    -0.32600
C1667       C  0.02690355  0.48703605  0.49328812     0.20900
C1668       C  0.04121977  0.48609727  0.50289754     0.03100
C1669       C  0.04059555  0.49217670  0.51831974    -0.22300
C1670       C  0.02506157  0.49927963  0.52357434     0.12200
S1671       S  0.99319570  0.50943890  0.52244940    -0.05900
C1672       C  0.00523546  0.51217181  0.53918071    -0.09400
C1673       C  0.02197193  0.50611755  0.53807364    -0.26000
S1674       S  0.05896772  0.47750089  0.49411802    -0.03200
C1675       C  0.04699813  0.47522756  0.47727416    -0.16700
C1676       C  0.03012096  0.48078699  0.47860612    -0.14700
H1677       H  0.00022597  0.49481301  0.49099825     0.20700
H1678       H  0.05177301  0.49155621  0.52584079     0.16800
H1679       H  0.03140753  0.50673082  0.54736486     0.19300
H1680       H  0.02074802  0.48052229  0.46924796     0.12600
C1681       C  0.53148619  0.55275818  0.39837309     0.16500
C1682       C  0.52404365  0.56026795  0.38509750    -0.32600
C1683       C  0.51154019  0.55074975  0.37709782     0.20900
C1684       C  0.50695470  0.53429329  0.38181922     0.03100
C1685       C  0.51426749  0.52685432  0.39519824    -0.22300
C1686       C  0.52645787  0.53655120  0.40342996     0.12200
S1687       S  0.54654398  0.56238311  0.40993447    -0.05900
C1688       C  0.54561587  0.54462766  0.42200172    -0.09400
C1689       C  0.53443813  0.53187008  0.41706255    -0.26000
S1690       S  0.49175445  0.52476593  0.37031224    -0.03200
C1691       C  0.49120602  0.54336827  0.35936600    -0.16700
C1692       C  0.50238062  0.55609880  0.36432152    -0.14700
H1693       H  0.52765682  0.57307068  0.38130005     0.20700
H1694       H  0.51045375  0.51416277  0.39914108     0.16800
H1695       H  0.53213991  0.51988775  0.42321929     0.19300
H1696       H  0.50372837  0.56860157  0.35883846     0.12600
C1697       C  0.61738865  0.58262433  0.45088178     0.16500
C1698       C  0.62981867  0.59466249  0.44635615    -0.32600
C1699       C  0.64362303  0.59748652  0.45649452     0.20900
C1700       C  0.64514106  0.58867359  0.47055078     0.03100
C1701       C  0.63258686  0.57658566  0.47515283    -0.22300
C1702       C  0.61863107  0.57380356  0.46497384     0.12200
S1703       S  0.59986940  0.57749055  0.43996791    -0.05900
C1704       C  0.59383688  0.56326643  0.45448403    -0.09400
C1705       C  0.60503460  0.56264181  0.46716262    -0.26000
S1706       S  0.66314762  0.59407598  0.48100437    -0.03200
C1707       C  0.66846980  0.60843869  0.46628251    -0.16700
C1708       C  0.65684790  0.60878576  0.45401265    -0.14700
H1709       H  0.62877051  0.60155492  0.43535867     0.20700
H1710       H  0.63364887  0.56967914  0.48613634     0.16800
H1711       H  0.60340327  0.55440895  0.47730919     0.19300
H1712       H  0.65797989  0.61684960  0.44370692     0.12600
C1713       C  0.53316228  0.50414031  0.49177812     0.16500
C1714       C  0.52180608  0.49267316  0.49921344    -0.32600
C1715       C  0.52500287  0.48853142  0.51493653     0.20900
C1716       C  0.53877723  0.49567600  0.52290812     0.03100
C1717       C  0.55004697  0.50721666  0.51550696    -0.22300
C1718       C  0.54698334  0.51119273  0.49974972     0.12200
S1719       S  0.53176147  0.51044382  0.47269512    -0.05900
C1720       C  0.55008707  0.52262773  0.47541099    -0.09400
C1721       C  0.55675500  0.52182506  0.49042853    -0.26000
S1722       S  0.54080508  0.48874413  0.54174330    -0.03200
C1723       C  0.52300916  0.47587978  0.53889602    -0.16700
C1724       C  0.51584143  0.47716427  0.52407406    -0.14700
H1725       H  0.51109939  0.48704901  0.49295416     0.20700
H1726       H  0.56088567  0.51266482  0.52170652     0.16800
H1727       H  0.56812443  0.52862423  0.49431792     0.19300
H1728       H  0.50476874  0.46994319  0.52010643     0.12600
C1729       C  0.23716742  0.29978290  0.36699305     0.16500
C1730       C  0.23657556  0.29565850  0.35105819    -0.32600
C1731       C  0.23822084  0.27833044  0.34697817     0.20900
C1732       C  0.24007870  0.26560661  0.35826139     0.03100
C1733       C  0.24103150  0.26977714  0.37419528    -0.22300
C1734       C  0.23964940  0.28715869  0.37826611     0.12200
S1735       S  0.23484906  0.31997640  0.37433191    -0.05900
C1736       C  0.23768421  0.31142511  0.39278243    -0.09400
C1737       C  0.24018890  0.29380767  0.39310707    -0.26000
S1738       S  0.24078447  0.24524544  0.35091499    -0.03200
C1739       C  0.23903414  0.25405004  0.33245017    -0.16700
C1740       C  0.23788356  0.27179022  0.33212427    -0.14700
H1741       H  0.23478301  0.30551474  0.34222931     0.20700
H1742       H  0.24263785  0.25990209  0.38303483     0.16800
H1743       H  0.24195059  0.28624048  0.40364640     0.19300
H1744       H  0.23644177  0.27944558  0.32159100     0.12600
C1745       C  0.12323909  0.43972535  0.44113039     0.16500
C1746       C  0.13802404  0.43214226  0.43486240    -0.32600
C1747       C  0.15082557  0.42677767  0.44532637     0.20900
C1748       C  0.14918345  0.42908074  0.46133409     0.03100
C1749       C  0.13443103  0.43684832  0.46761674    -0.22300
C1750       C  0.12148227  0.44201031  0.45713709     0.12200
S1751       S  0.10584782  0.44609644  0.43041387    -0.05900
C1752       C  0.09593544  0.45185252  0.44765897    -0.09400
C1753       C  0.10586201  0.44906686  0.46095359    -0.26000
S1754       S  0.16598109  0.42099729  0.47200497    -0.03200
C1755       C  0.17511858  0.41417200  0.45470501    -0.16700
C1756       C  0.16564064  0.41831919  0.44146985    -0.14700
H1757       H  0.13931072  0.43012071  0.42238263     0.20700
H1758       H  0.13293956  0.43844504  0.48012846     0.16800
H1759       H  0.10168761  0.45160792  0.47281638     0.19300
H1760       H  0.16917786  0.41498211  0.42960922     0.12600
C1761       C  0.31307977  0.26374719  0.64415050     0.16500
C1762       C  0.30757018  0.27458669  0.63197360    -0.32600
C1763       C  0.31946570  0.27860373  0.62009704     0.20900
C1764       C  0.33614704  0.27235347  0.62051898     0.03100
C1765       C  0.34151090  0.26128117  0.63247115    -0.22300
C1766       C  0.32957940  0.25703605  0.64415082     0.12200
S1767       S  0.30097211  0.25774488  0.66001156    -0.05900
C1768       C  0.31821780  0.24573241  0.66637531    -0.09400
C1769       C  0.33250116  0.24650706  0.65672204    -0.26000
S1770       S  0.34901357  0.27946453  0.60568201    -0.03200
C1771       C  0.33165606  0.29061604  0.59849481    -0.16700
C1772       C  0.31672149  0.28895040  0.60728141    -0.14700
H1773       H  0.29465813  0.27975090  0.63182445     0.20700
H1774       H  0.35449026  0.25628658  0.63272228     0.16800
H1775       H  0.34454898  0.24001987  0.65899576     0.19300
H1776       H  0.30470355  0.29533127  0.60466882     0.12600
C1777       C  0.46006880  0.41036802  0.55928649     0.16500
C1778       C  0.44761876  0.39777272  0.56252328    -0.32600
C1779       C  0.43351896  0.39650640  0.55234126     0.20900
C1780       C  0.43185620  0.40722209  0.53944626     0.03100
C1781       C  0.44446205  0.41967611  0.53606986    -0.22300
C1782       C  0.45855473  0.42100219  0.54630846     0.12200
S1783       S  0.47767511  0.41450257  0.57065242    -0.05900
C1784       C  0.48316838  0.43076805  0.55779969    -0.09400
C1785       C  0.47184482  0.43263614  0.54532358    -0.26000
S1786       S  0.41339858  0.40391561  0.52890516    -0.03200
C1787       C  0.40790830  0.38784836  0.54198141    -0.16700
C1788       C  0.41993015  0.38536076  0.55380081    -0.14700
H1789       H  0.44873089  0.38948944  0.57268613     0.20700
H1790       H  0.44321134  0.42813639  0.52604584     0.16800
H1791       H  0.47304829  0.44226618  0.53619925     0.19300
H1792       H  0.41873646  0.37603960  0.56317651     0.12600
C1793       C  0.01290250  0.96229908  0.63148117     0.16500
C1794       C  0.02834535  0.96092506  0.62295592    -0.32600
C1795       C  0.02748043  0.96269703  0.60656347     0.20900
C1796       C  0.01198155  0.96603214  0.59914961     0.03100
C1797       C  0.99663597  0.96720512  0.60759615    -0.22300
C1798       C  0.99744114  0.96507402  0.62382918     0.12200
S1799       S  0.01090183  0.96056316  0.65142371    -0.05900
C1800       C  0.98901295  0.96308147  0.64917936    -0.09400
C1801       C  0.98373823  0.96532004  0.63386234    -0.26000
S1802       S  0.01337273  0.96823107  0.57939506    -0.03200
C1803       C  0.03507527  0.96420075  0.58084212    -0.16700
C1804       C  0.04087082  0.96147573  0.59603592    -0.14700
H1805       H  0.04043710  0.95848803  0.62881116     0.20700
H1806       H  0.98452733  0.96956075  0.60173011     0.16800
H1807       H  0.97051430  0.96712969  0.63026518     0.19300
H1808       H  0.05409427  0.95889547  0.59919208     0.12600
C1809       C  0.02180941  0.04843901  0.86807712     0.16500
C1810       C  0.03743331  0.04537145  0.87583728    -0.32600
C1811       C  0.03788287  0.04793919  0.89211652     0.20900
C1812       C  0.02335813  0.05311916  0.90026272     0.03100
C1813       C  0.00791740  0.05650186  0.89249141    -0.22300
C1814       C  0.00752745  0.05410670  0.87627104     0.12200
S1815       S  0.01824557  0.04561807  0.84847134    -0.05900
C1816       C  0.99744019  0.05252703  0.85139640    -0.09400
C1817       C  0.99361649  0.05661228  0.86678068    -0.26000
S1818       S  0.02595770  0.05426873  0.92001440    -0.03200
C1819       C  0.04696548  0.04806320  0.91735908    -0.16700
C1820       C  0.05165062  0.04527173  0.90190568    -0.14700
H1821       H  0.04865907  0.04099488  0.86951064     0.20700
H1822       H  0.99660598  0.06060461  0.89885533     0.16800
H1823       H  0.98120226  0.06097497  0.87088735     0.19300
H1824       H  0.06417575  0.04084888  0.89814668     0.12600
C1825       C  0.74890690  0.22917383  0.62636517     0.16500
C1826       C  0.75760722  0.23736750  0.63864480    -0.32600
C1827       C  0.74811438  0.24853956  0.64818993     0.20900
C1828       C  0.73085844  0.25174721  0.64537952     0.03100
C1829       C  0.72215076  0.24345605  0.63321864    -0.22300
C1830       C  0.73151617  0.23198654  0.62394272     0.12200
S1831       S  0.75789590  0.21482354  0.61365064    -0.05900
C1832       C  0.73786473  0.21219828  0.60537250    -0.09400
C1833       C  0.72510344  0.22220550  0.61201534    -0.26000
S1834       S  0.72162899  0.26582927  0.65811145    -0.03200
C1835       C  0.74106618  0.26705948  0.66766807    -0.16700
C1836       C  0.75401349  0.25718090  0.66109298    -0.14700
H1837       H  0.77110379  0.23495152  0.64080500     0.20700
H1838       H  0.70858613  0.24565997  0.63121496     0.16800
H1839       H  0.71177723  0.22225934  0.60836109     0.19300
H1840       H  0.76700437  0.25631141  0.66556697     0.12600
C1841       C  0.83015743  0.25721619  0.86486852     0.16500
C1842       C  0.83029406  0.26054099  0.88102018    -0.32600
C1843       C  0.83092765  0.27778323  0.88577679     0.20900
C1844       C  0.83168173  0.29106217  0.87491155     0.03100
C1845       C  0.83121201  0.28775851  0.85882052    -0.22300
C1846       C  0.83031961  0.27058346  0.85408860     0.12200
S1847       S  0.82966422  0.23724604  0.85660041    -0.05900
C1848       C  0.82915180  0.24708524  0.83847964    -0.09400
C1849       C  0.82957818  0.26486572  0.83896930    -0.26000
S1850       S  0.83353056  0.31099881  0.88288631    -0.03200
C1851       C  0.83291576  0.30146858  0.90110802    -0.16700
C1852       C  0.83133463  0.28372375  0.90090712    -0.14700
H1853       H  0.83000228  0.25015780  0.88949306     0.20700
H1854       H  0.83163007  0.29813753  0.85034234     0.16800
H1855       H  0.82940888  0.27318412  0.82877155     0.19300
H1856       H  0.83108113  0.27561258  0.91123655     0.12600
C1857       C  0.84948407  0.16682531  0.80066246     0.16500
C1858       C  0.85439266  0.15102338  0.79413088    -0.32600
C1859       C  0.86677202  0.14126518  0.80219492     0.20900
C1860       C  0.87374293  0.14696614  0.81617101     0.03100
C1861       C  0.86863037  0.16252687  0.82280262    -0.22300
C1862       C  0.85643508  0.17229946  0.81471538     0.12200
S1863       S  0.83566600  0.18127071  0.79228564    -0.05900
C1864       C  0.83940463  0.19476775  0.80790400    -0.09400
C1865       C  0.85058074  0.18815235  0.81900036    -0.26000
S1866       S  0.88907585  0.13390894  0.82387515    -0.03200
C1867       C  0.88622369  0.12042797  0.80814843    -0.16700
C1868       C  0.87384058  0.12591258  0.79753970    -0.14700
H1869       H  0.84912405  0.14673737  0.78309569     0.20700
H1870       H  0.87422856  0.16702132  0.83363702     0.16800
H1871       H  0.85471424  0.19485934  0.82941907     0.19300
H1872       H  0.87045574  0.11925985  0.78688144     0.12600
C1873       C  0.79355340  0.26242737  0.76696963     0.16500
C1874       C  0.78262939  0.27401749  0.75932852    -0.32600
C1875       C  0.77938729  0.27136112  0.74339243     0.20900
C1876       C  0.78688501  0.25788420  0.73534800     0.03100
C1877       C  0.79790762  0.24631567  0.74298270    -0.22300
C1878       C  0.80092873  0.24881487  0.75901427     0.12200
S1879       S  0.79850328  0.26317828  0.78637346    -0.05900
C1880       C  0.81040949  0.24474596  0.78392789    -0.09400
C1881       C  0.81061830  0.23856008  0.76871079    -0.26000
S1882       S  0.78080433  0.25655023  0.71619445    -0.03200
C1883       C  0.76786293  0.27423498  0.71908884    -0.16700
C1884       C  0.76851492  0.28081454  0.73413310    -0.14700
H1885       H  0.77665700  0.28447695  0.76561357     0.20700
H1886       H  0.80358233  0.23563680  0.73677819     0.16800
H1887       H  0.81733323  0.22711776  0.76498577     0.19300
H1888       H  0.76106433  0.29164049  0.73821427     0.12600
C1889       C  0.56641417  0.54394637  0.88248396     0.16500
C1890       C  0.55985632  0.53747741  0.89666032    -0.32600
C1891       C  0.54802172  0.54767036  0.90484708     0.20900
C1892       C  0.54252602  0.56332515  0.89892113     0.03100
C1893       C  0.54910137  0.56979651  0.88478919    -0.22300
C1894       C  0.56135399  0.55988936  0.87688526     0.12200
S1895       S  0.58149838  0.53399486  0.87112575    -0.05900
C1896       C  0.58143594  0.55179592  0.85906649    -0.09400
C1897       C  0.57003553  0.56451927  0.86353514    -0.26000
S1898       S  0.52825550  0.57385019  0.91063290    -0.03200
C1899       C  0.53015323  0.55731401  0.92397873    -0.16700
C1900       C  0.54102792  0.54418645  0.91929197    -0.14700
H1901       H  0.56412139  0.52524968  0.90129941     0.20700
H1902       H  0.54517465  0.58222948  0.88035695     0.16800
H1903       H  0.56833406  0.57660965  0.85742442     0.19300
H1904       H  0.54387387  0.53284668  0.92619149     0.12600
C1905       C  0.56771752  0.46721907  0.63157771     0.16500
C1906       C  0.56077748  0.47306670  0.61739098    -0.32600
C1907       C  0.54898537  0.46234924  0.60970369     0.20900
C1908       C  0.54406898  0.44661408  0.61592757     0.03100
C1909       C  0.55113323  0.44069308  0.63005441    -0.22300
C1910       C  0.56314370  0.45129385  0.63762192     0.12200
S1911       S  0.58232991  0.47822183  0.64267095    -0.05900
C1912       C  0.58261447  0.46099627  0.65539319    -0.09400
C1913       C  0.57175663  0.44760702  0.65121237    -0.26000
S1914       S  0.52940574  0.43566866  0.60479830    -0.03200
C1915       C  0.53018162  0.45233153  0.59145755    -0.16700
C1916       C  0.54116235  0.46563102  0.59565937    -0.14700
H1917       H  0.56449699  0.48538327  0.61249435     0.20700
H1918       H  0.54753508  0.42830730  0.63487633     0.16800
H1919       H  0.57024344  0.43577111  0.65778111     0.19300
H1920       H  0.54334853  0.47713923  0.58875935     0.12600
C1921       C  0.70115938  0.33627331  0.70031591     0.16500
C1922       C  0.68752268  0.34756381  0.69752243    -0.32600
C1923       C  0.68513818  0.36111666  0.70802359     0.20900
C1924       C  0.69584121  0.36343488  0.72078888     0.03100
C1925       C  0.70946497  0.35199089  0.72368927    -0.22300
C1926       C  0.71185222  0.33834627  0.71314284     0.12200
S1927       S  0.70620712  0.31927709  0.68869107    -0.05900
C1928       C  0.72288836  0.31460857  0.70124863    -0.09400
C1929       C  0.72436109  0.32586863  0.71378209    -0.26000
S1930       S  0.69093160  0.38117607  0.73174591    -0.03200
C1931       C  0.67428987  0.38543648  0.71894702    -0.16700
C1932       C  0.67276963  0.37353650  0.70697455    -0.14700
H1933       H  0.67918544  0.34593013  0.68749274     0.20700
H1934       H  0.71789564  0.35371775  0.73363440     0.16800
H1935       H  0.73408223  0.32502336  0.72280937     0.19300
H1936       H  0.66331688  0.37405614  0.69770609     0.12600
C1937       C  0.75483808  0.76772376  0.85871828     0.16500
C1938       C  0.76154885  0.77787577  0.87080303    -0.32600
C1939       C  0.75079084  0.78139496  0.88360356     0.20900
C1940       C  0.73406796  0.77517898  0.88425340     0.03100
C1941       C  0.72752719  0.76468519  0.87238496    -0.22300
C1942       C  0.73829788  0.76109728  0.85965513     0.12200
S1943       S  0.76547978  0.76260697  0.84186031    -0.05900
C1944       C  0.74758787  0.75109351  0.83620708    -0.09400
C1945       C  0.73413223  0.75139768  0.84686039    -0.26000
S1946       S  0.72248700  0.78219844  0.89991949    -0.03200
C1947       C  0.74041223  0.79341888  0.90583347    -0.16700
C1948       C  0.75462975  0.79164503  0.89617277    -0.14700
H1949       H  0.77445753  0.78307114  0.87011531     0.20700
H1950       H  0.71447654  0.75982838  0.87288950     0.16800
H1951       H  0.72186824  0.74503518  0.84523443     0.19300
H1952       H  0.76676225  0.79824862  0.89780157     0.12600
C1953       C  0.70258461  0.68191106  0.80901968     0.16500
C1954       C  0.68951122  0.67050068  0.81354619    -0.32600
C1955       C  0.68696065  0.65579326  0.80442869     0.20900
C1956       C  0.69696012  0.65253718  0.79134056     0.03100
C1957       C  0.71003065  0.66403686  0.78673878    -0.22300
C1958       C  0.71258435  0.67880721  0.79588631     0.12200
S1959       S  0.70788154  0.70018027  0.81885532    -0.05900
C1960       C  0.72378428  0.70386743  0.80515814    -0.09400
C1961       C  0.72474001  0.69145689  0.79353542    -0.26000
S1962       S  0.69181246  0.63377943  0.78202733    -0.03200
C1963       C  0.67599186  0.63032810  0.79591617    -0.16700
C1964       C  0.67495931  0.64317385  0.80709527    -0.14700
H1965       H  0.68172309  0.67292955  0.82381699     0.20700
H1966       H  0.71790777  0.66153983  0.77654209     0.16800
H1967       H  0.73401516  0.69151474  0.78406660     0.19300
H1968       H  0.66593611  0.64331577  0.81675219     0.12600
C1969       C  0.82768864  0.75697141  0.64273622     0.16500
C1970       C  0.82737780  0.75052099  0.62738953    -0.32600
C1971       C  0.82918621  0.73268038  0.62545727     0.20900
C1972       C  0.83150726  0.72185700  0.63821470     0.03100
C1973       C  0.83163266  0.72825426  0.65348083    -0.22300
C1974       C  0.82952889  0.74596000  0.65541648     0.12200
S1975       S  0.82563304  0.77815032  0.64780554    -0.05900
C1976       C  0.82682625  0.77190513  0.66717824    -0.09400
C1977       C  0.82889859  0.75440005  0.66939519    -0.26000
S1978       S  0.83387465  0.70074471  0.63358475    -0.03200
C1979       C  0.83133473  0.70633936  0.61420611    -0.16700
C1980       C  0.82891511  0.72378735  0.61158716    -0.14700
H1981       H  0.82570323  0.75899603  0.61742696     0.20700
H1982       H  0.83320360  0.71976341  0.66345225     0.16800
H1983       H  0.82989627  0.74814064  0.68070877     0.19300
H1984       H  0.82718142  0.72964258  0.60018026     0.12600
C1985       C  0.84822113  0.85574788  0.68400762     0.16500
C1986       C  0.85764338  0.86967284  0.67807061    -0.32600
C1987       C  0.86069881  0.88356023  0.68807258     0.20900
C1988       C  0.85429676  0.88386585  0.70321888     0.03100
C1989       C  0.84458967  0.87001666  0.70910044    -0.22300
C1990       C  0.84191249  0.85588217  0.69919758     0.12200
S1991       S  0.84451008  0.83710689  0.67412077    -0.05900
C1992       C  0.83459689  0.82915324  0.69069627    -0.09400
C1993       C  0.83399597  0.84065863  0.70308360    -0.26000
S1994       S  0.86044201  0.90155121  0.71370337    -0.03200
C1995       C  0.87211533  0.90831806  0.69760433    -0.16700
C1996       C  0.87078462  0.89754040  0.68477545    -0.14700
H1997       H  0.86293439  0.86941330  0.66633574     0.20700
H1998       H  0.83988603  0.86997898  0.72104113     0.16800
H1999       H  0.82857300  0.83783735  0.71449871     0.19300
H2000       H  0.87735321  0.89946826  0.67372063     0.12600
C2001       C  0.80010736  0.77547704  0.74756872     0.16500
C2002       C  0.79416089  0.77489392  0.76308674    -0.32600
C2003       C  0.78464612  0.76038690  0.76779311     0.20900
C2004       C  0.78139204  0.74698275  0.75758183     0.03100
C2005       C  0.78764015  0.74740729  0.74221121    -0.22300
C2006       C  0.79693848  0.76196534  0.73745889     0.12200
S2007       S  0.81075694  0.79242162  0.73911660    -0.05900
C2008       C  0.81085846  0.78113873  0.72179271    -0.09400
C2009       C  0.80319854  0.76506726  0.72274727    -0.26000
S2010       S  0.76870851  0.73104787  0.76515198    -0.03200
C2011       C  0.76767412  0.74252555  0.78230896    -0.16700
C2012       C  0.77692465  0.75782336  0.78206680    -0.14700
H2013       H  0.79641994  0.78548212  0.77100223     0.20700
H2014       H  0.78494384  0.73704881  0.73415513     0.16800
H2015       H  0.80181923  0.75627211  0.71304071     0.19300
H2016       H  0.77751008  0.76686569  0.79164687     0.12600
C2017       C  0.55884355  0.96021839  0.37974281     0.16500
C2018       C  0.55467027  0.96045921  0.39569861    -0.32600
C2019       C  0.53747379  0.96332529  0.39980651     0.20900
C2020       C  0.52488698  0.96570528  0.38853321     0.03100
C2021       C  0.52916030  0.96595419  0.37251869    -0.22300
C2022       C  0.54646052  0.96320545  0.36839371     0.12200
S2023       S  0.57877007  0.95577174  0.37251570    -0.05900
C2024       C  0.57056505  0.95823739  0.35393063    -0.09400
C2025       C  0.55320919  0.96240224  0.35348395    -0.26000
S2026       S  0.50457643  0.96787682  0.39605734    -0.03200
C2027       C  0.51328762  0.96601611  0.41454050    -0.16700
C2028       C  0.53094694  0.96375478  0.41471944    -0.14700
H2029       H  0.56437824  0.95820339  0.40453987     0.20700
H2030       H  0.51939816  0.96790471  0.36367159     0.16800
H2031       H  0.54582943  0.96409979  0.34285553     0.19300
H2032       H  0.53856749  0.96220171  0.42522984     0.12600
C2033       C  0.53233393  0.04420637  0.11386831     0.16500
C2034       C  0.53684258  0.04559895  0.12976250    -0.32600
C2035       C  0.55442594  0.04497746  0.13361685     0.20900
C2036       C  0.56691390  0.04335702  0.12211060     0.03100
C2037       C  0.56239648  0.04161294  0.10632737    -0.22300
C2038       C  0.54487603  0.04195399  0.10251928     0.12200
S2039       S  0.51182693  0.04506263  0.10655982    -0.05900
C2040       C  0.52028675  0.04188114  0.08810541    -0.09400
C2041       C  0.53805144  0.04040539  0.08780813    -0.26000
S2042       S  0.58752705  0.04389949  0.12891138    -0.03200
C2043       C  0.57935976  0.04585826  0.14756044    -0.16700
C2044       C  0.56151672  0.04613479  0.14834340    -0.14700
H2045       H  0.52709993  0.04718292  0.13870509     0.20700
H2046       H  0.57214664  0.04015859  0.09736845     0.16800
H2047       H  0.54562642  0.03851370  0.07730773     0.19300
H2048       H  0.55418389  0.04754066  0.15904511     0.12600
C2049       C  0.74278911  0.28897805  0.13698841     0.16500
C2050       C  0.74420302  0.28385010  0.15267871    -0.32600
C2051       C  0.74289828  0.26625597  0.15605828     0.20900
C2052       C  0.73989764  0.25429257  0.14440296     0.03100
C2053       C  0.73862757  0.25941242  0.12866563    -0.22300
C2054       C  0.74037995  0.27698921  0.12523017     0.12200
S2055       S  0.74402432  0.30972041  0.13052411    -0.05900
C2056       C  0.74184202  0.30215108  0.11172348    -0.09400
C2057       C  0.74005167  0.28447885  0.11064268    -0.26000
S2058       S  0.73852962  0.23356617  0.15103414    -0.03200
C2059       C  0.74256831  0.24106532  0.16963639    -0.16700
C2060       C  0.74454955  0.25874609  0.17051629    -0.14700
H2061       H  0.74639563  0.29316030  0.16184454     0.20700
H2062       H  0.73656927  0.25008898  0.11948837     0.16800
H2063       H  0.73834179  0.27754384  0.09979592     0.19300
H2064       H  0.74715302  0.26574779  0.18118271     0.12600
C2065       C  0.71591389  0.15998839  0.18886544     0.16500
C2066       C  0.70528372  0.14692337  0.18311296    -0.32600
C2067       C  0.70203755  0.13274085  0.19284687     0.20900
C2068       C  0.70932541  0.13136621  0.20758383     0.03100
C2069       C  0.72018871  0.14440965  0.21330676    -0.22300
C2070       C  0.72315773  0.15884837  0.20365061     0.12200
S2071       S  0.72036243  0.17863571  0.17911932    -0.05900
C2072       C  0.73195526  0.18533922  0.19516614    -0.09400
C2073       C  0.73246114  0.17338810  0.20733725    -0.26000
S2074       S  0.70307047  0.11329288  0.21769467    -0.03200
C2075       C  0.69026695  0.10775916  0.20197568    -0.16700
C2076       C  0.69122041  0.11930788  0.18956727    -0.14700
H2077       H  0.69939424  0.14799376  0.17167003     0.20700
H2078       H  0.72569555  0.14355899  0.22491637     0.16800
H2079       H  0.73891181  0.17539014  0.21840416     0.19300
H2080       H  0.68407725  0.11819761  0.17875598     0.12600
C2081       C  0.83046459  0.25126684  0.36143385     0.16500
C2082       C  0.83599194  0.24477450  0.37591756    -0.32600
C2083       C  0.82598902  0.23187144  0.38302611     0.20900
C2084       C  0.81099480  0.22588133  0.37616773     0.03100
C2085       C  0.80561154  0.23219296  0.36157825    -0.22300
C2086       C  0.81574809  0.24491085  0.35435860     0.12200
S2087       S  0.84066453  0.26706353  0.35096048    -0.05900
C2088       C  0.82514672  0.26482363  0.33671717    -0.09400
C2089       C  0.81272663  0.25252045  0.34011702    -0.26000
S2090       S  0.80042237  0.21054063  0.38690450    -0.03200
C2091       C  0.81659869  0.21189143  0.40059117    -0.16700
C2092       C  0.82936718  0.22374699  0.39695987    -0.14700
H2093       H  0.84759442  0.24955051  0.38139631     0.20700
H2094       H  0.79403202  0.22738837  0.35608244     0.16800
H2095       H  0.80196165  0.24940205  0.33261344     0.19300
H2096       H  0.84049934  0.22633676  0.40418139     0.12600
C2097       C  0.77549927  0.23757968  0.24826061     0.16500
C2098       C  0.78195391  0.23846885  0.26356724    -0.32600
C2099       C  0.79098025  0.25337380  0.26785764     0.20900
C2100       C  0.79351728  0.26680969  0.25740080     0.03100
C2101       C  0.78698344  0.26596253  0.24212671    -0.22300
C2102       C  0.77793985  0.25107063  0.23784697     0.12200
S2103       S  0.76434055  0.22055935  0.24066047    -0.05900
C2104       C  0.76284913  0.23177630  0.22326608    -0.09400
C2105       C  0.77069257  0.24783744  0.22354346    -0.26000
S2106       S  0.80512483  0.28360620  0.26481996    -0.03200
C2107       C  0.80655322  0.27244499  0.28225001    -0.16700
C2108       C  0.79835977  0.25656019  0.28212398    -0.14700
H2109       H  0.78008807  0.22797204  0.27176023     0.20700
H2110       H  0.78892710  0.27642247  0.23390785     0.16800
H2111       H  0.77113263  0.25670980  0.21374672     0.19300
H2112       H  0.79798452  0.24768286  0.29191777     0.12600
C2113       C  0.03019951  0.55913496  0.11416814     0.16500
C2114       C  0.02529358  0.55744705  0.12994820    -0.32600
C2115       C  0.00760717  0.55675616  0.13337310     0.20900
C2116       C  0.99537821  0.55805185  0.12163287     0.03100
C2117       C  0.00026829  0.55946571  0.10588500    -0.22300
C2118       C  0.01790327  0.55981652  0.10245375     0.12200
S2119       S  0.05096280  0.56001248  0.10742667    -0.05900
C2120       C  0.04292109  0.56073421  0.08864092    -0.09400
C2121       C  0.02511512  0.56057028  0.08782568    -0.26000
S2122       S  0.97462676  0.55790365  0.12816882    -0.03200
C2123       C  0.98240829  0.55566626  0.14693707    -0.16700
C2124       C  0.00021114  0.55510820  0.14794269    -0.14700
H2125       H  0.03483101  0.55664716  0.13913870     0.20700
H2126       H  0.99072887  0.56022349  0.09668845     0.16800
H2127       H  0.01781938  0.56078055  0.07703654     0.19300
H2128       H  0.00734334  0.55408144  0.15877917     0.12600
C2129       C  0.01710651  0.46572523  0.37168463     0.16500
C2130       C  0.03195596  0.46926647  0.38046382    -0.32600
C2131       C  0.03190046  0.46463715  0.39639483     0.20900
C2132       C  0.01754794  0.45718164  0.40332587     0.03100
C2133       C  0.00284677  0.45340704  0.39451283    -0.22300
C2134       C  0.00304012  0.45770449  0.37855445     0.12200
S2135       S  0.01445743  0.47034311  0.35221706    -0.05900
C2136       C  0.99440834  0.46087948  0.35327513    -0.09400
C2137       C  0.99007761  0.45475935  0.36804490    -0.26000
S2138       S  0.01961580  0.45331567  0.42291652    -0.03200
C2139       C  0.04022698  0.46134501  0.42174001    -0.16700
C2140       C  0.04510629  0.46682049  0.40689665    -0.14700
H2141       H  0.04306476  0.47532671  0.37511132     0.20700
H2142       H  0.99172616  0.44736506  0.39986896     0.16800
H2143       H  0.97801178  0.44855415  0.37098359     0.19300
H2144       H  0.05748373  0.47243035  0.40404531     0.12600
C2145       C  0.86309450  0.33952964  0.31186506     0.16500
C2146       C  0.87474089  0.35207976  0.31689883    -0.32600
C2147       C  0.87768500  0.36622666  0.30704574     0.20900
C2148       C  0.86929019  0.36798299  0.29283916     0.03100
C2149       C  0.85757489  0.35537529  0.28777379    -0.22300
C2150       C  0.85475160  0.34106376  0.29759939     0.12200
S2151       S  0.85802080  0.32139633  0.32216585    -0.05900
C2152       C  0.84453414  0.31554740  0.30709863    -0.09400
C2153       C  0.84408309  0.32727315  0.29476082    -0.26000
S2154       S  0.87487913  0.38620842  0.28266383    -0.03200
C2155       C  0.88884507  0.39132082  0.29764661    -0.16700
C2156       C  0.88885508  0.37948599  0.30984624    -0.14700
H2157       H  0.88134186  0.35080311  0.32799428     0.20700
H2158       H  0.85105924  0.35659944  0.27663657     0.16800
H2159       H  0.83635023  0.32581766  0.28432143     0.19300
H2160       H  0.89668835  0.38043305  0.32026702     0.12600
C2161       C  0.75475407  0.75057542  0.37161620     0.16500
C2162       C  0.76126373  0.74007525  0.38362702    -0.32600
C2163       C  0.74946797  0.73289381  0.39429043     0.20900
C2164       C  0.73198172  0.73603846  0.39299877     0.03100
C2165       C  0.72555088  0.74697326  0.38131290    -0.22300
C2166       C  0.73732614  0.75415769  0.37067231     0.12200
S2167       S  0.76668013  0.75916274  0.35668272    -0.05900
C2168       C  0.74804477  0.76792589  0.34924528    -0.09400
C2169       C  0.73343775  0.76437854  0.35801506    -0.26000
S2170       S  0.71959206  0.72490035  0.40607874    -0.03200
C2171       C  0.73813851  0.71610027  0.41361026    -0.16700
C2172       C  0.75312321  0.72166999  0.40631421    -0.14700
H2173       H  0.77485800  0.73721398  0.38434278     0.20700
H2174       H  0.71188990  0.74936491  0.38027442     0.16800
H2175       H  0.72056701  0.76839481  0.35489259     0.19300
H2176       H  0.76590071  0.71718843  0.40921193     0.12600
C2177       C  0.70366936  0.83594890  0.31814536     0.16500
C2178       C  0.69090631  0.84780185  0.32219119    -0.32600
C2179       C  0.68814916  0.86174905  0.31207352     0.20900
C2180       C  0.69762343  0.86384885  0.29844736     0.03100
C2181       C  0.71036174  0.85186058  0.29430260    -0.22300
C2182       C  0.71317046  0.83786763  0.30449978     0.12200
S2183       S  0.70924270  0.81858629  0.32926652    -0.05900
C2184       C  0.72466690  0.81366430  0.31548988    -0.09400
C2185       C  0.72520633  0.82501752  0.30284545    -0.26000
S2186       S  0.69231442  0.88192274  0.28797185    -0.03200
C2187       C  0.67712934  0.88661603  0.30210781    -0.16700
C2188       C  0.67643259  0.87466411  0.31421117    -0.14700
H2189       H  0.68353911  0.84630667  0.33288279     0.20700
H2190       H  0.71784945  0.85345457  0.28369578     0.16800
H2191       H  0.73414711  0.82413423  0.29315430     0.19300
H2192       H  0.66784592  0.87535988  0.32416872     0.12600
C2193       C  0.83645954  0.77806904  0.15808583     0.16500
C2194       C  0.83816663  0.79297712  0.14904509    -0.32600
C2195       C  0.83677845  0.79137635  0.13278959     0.20900
C2196       C  0.83361534  0.77568673  0.12573868     0.03100
C2197       C  0.83227988  0.76064144  0.13479147    -0.22300
C2198       C  0.83388811  0.76221721  0.15111194     0.12200
S2199       S  0.83701604  0.77757067  0.17802736    -0.05900
C2200       C  0.83418236  0.75570090  0.17703207    -0.09400
C2201       C  0.83284233  0.74922680  0.16197992    -0.26000
S2202       S  0.83156437  0.77683496  0.10579235    -0.03200
C2203       C  0.83547500  0.79858027  0.10708215    -0.16700
C2204       C  0.83804095  0.80446188  0.12216600    -0.14700
H2205       H  0.84033446  0.80534031  0.15446251     0.20700
H2206       H  0.82996086  0.74830398  0.12938398     0.16800
H2207       H  0.83078512  0.73582716  0.15919044     0.19300
H2208       H  0.84047244  0.81772113  0.12524647     0.12600
C2209       C  0.86239020  0.67664860  0.19806018     0.16500
C2210       C  0.87255447  0.66339889  0.19213349    -0.32600
C2211       C  0.87385160  0.64832835  0.20102056     0.20900
C2212       C  0.86539355  0.64641124  0.21521138     0.03100
C2213       C  0.85514085  0.65974268  0.22117881    -0.22300
C2214       C  0.85389077  0.67494667  0.21227224     0.12200
S2215       S  0.85939932  0.69583482  0.18890033    -0.05900
C2216       C  0.84655243  0.70191828  0.20435578    -0.09400
C2217       C  0.84476947  0.68951498  0.21601212    -0.26000
S2218       S  0.86901831  0.62701834  0.22417974    -0.03200
C2219       C  0.88207228  0.62155977  0.20860844    -0.16700
C2220       C  0.88333852  0.63420517  0.19717619    -0.14700
H2221       H  0.87924234  0.66480963  0.18106740     0.20700
H2222       H  0.84853603  0.65836872  0.23228302     0.16800
H2223       H  0.83720932  0.69104431  0.22656605     0.19300
H2224       H  0.89098074  0.63329193  0.18661736     0.12600
C2225       C  0.79839364  0.76599912  0.24872641     0.16500
C2226       C  0.78793138  0.77761054  0.25682593    -0.32600
C2227       C  0.78293885  0.77325390  0.27211054     0.20900
C2228       C  0.78838268  0.75811672  0.27910435     0.03100
C2229       C  0.79889523  0.74649771  0.27100381    -0.22300
C2230       C  0.80366799  0.75073517  0.25560196     0.12200
S2231       S  0.80524788  0.76876773  0.22994563    -0.05900
C2232       C  0.81517897  0.74901858  0.23114662    -0.09400
C2233       C  0.81332643  0.74088515  0.24555427    -0.26000
S2234       S  0.78076421  0.75510193  0.29765503    -0.03200
C2235       C  0.76987969  0.77431592  0.29592259    -0.16700
C2236       C  0.77228177  0.78259336  0.28167278    -0.14700
H2237       H  0.78365025  0.78941259  0.25135164     0.20700
H2238       H  0.80295563  0.73457047  0.27639075     0.16800
H2239       H  0.81854916  0.72839671  0.24845020     0.19300
H2240       H  0.76642123  0.79468786  0.27841905     0.12600
loop_ 
_geom_bond_atom_site_label_1 
_geom_bond_atom_site_label_2 
_geom_bond_distance 
_geom_bond_site_symmetry_2 
_ccdc_geom_bond_type 
C1            N2   1.366       .  A
C1            N6   1.359       .  A
C1         C2216   1.477       .  S
N2            C3   1.365       .  A
C3            N4   1.358       .  A
C3         C2232   1.478       .  S
N4            C5   1.353       .  A
C5            N6   1.353       .  A
C5         C2200   1.468       .  S
C7            N8   1.364       .  A
C7           N12   1.363       .  A
C7         C2184   1.484       .  S
N8            C9   1.364       .  A
C9           N10   1.357       .  A
C9         C2235   1.478       .  S
N10          C11   1.355       .  A
C11          N12   1.359       .  A
C11        C2168   1.475       .  S
N13          C17   1.344       .  A
N13          N14   1.321       .  A
N13         Cu21   2.073       .  S
N14          C15   1.349       .  A
N14         Cu20   2.086       .  S
C15          C16   1.387       .  A
C15          H18   1.082       .  S
C16        C2136   1.478       .  S
C16          C17   1.384       .  A
C17          H19   1.082       .  S
Cu20         N23   2.087       .  S
Cu21         N31   2.073       .  S
Cu22         N24   2.095       .  S
Cu22         N30   2.094       .  S
N23          C27   1.347       .  A
N23          N24   1.326       .  A
N24          C25   1.349       .  A
C25          C26   1.384       .  A
C25          H28   1.082       .  S
C26          C50   1.473       .  S
C26          C27   1.381       .  A
C27          H29   1.082       .  S
N30          C34   1.351       .  A
N30          N31   1.322       .  A
N31          C32   1.343       .  A
C32          C33   1.385       .  A
C32          H35   1.081       .  S
C33        C2155   1.483       .  S
C33          C34   1.390       .  A
C34          H36   1.082       .  S
N37          C41   1.344       .  A
N37          N38   1.321       .  A
N37         Cu45   2.067       .  S
N38          C39   1.350       .  A
N38         Cu44   2.089       .  S
C39          C40   1.388       .  A
C39          H42   1.082       .  S
C40        C2123   1.476       .  S
C40          C41   1.382       .  A
C41          H43   1.082       .  S
Cu44         N47   2.090       .  S
Cu45         N55   2.068       .  S
Cu46         N48   2.091       .  S
Cu46         N54   2.089       .  S
N47          C51   1.347       .  A
N47          N48   1.326       .  A
N48          C49   1.349       .  A
C49          C50   1.383       .  A
C49          H52   1.082       .  S
C50          C51   1.382       .  A
C51          H53   1.082       .  S
N54          C58   1.351       .  A
N54          N55   1.321       .  A
N55          C56   1.342       .  A
C56          C57   1.384       .  A
C56          H59   1.081       .  S
C57        C2219   1.481       .  S
C57          C58   1.390       .  A
C58          H60   1.082       .  S
C61          N62   1.361       .  A
C61          N66   1.363       .  A
C61        C2152   1.482       .  S
N62          C63   1.358       .  A
C63          N64   1.357       .  A
C63        C2088   1.477       .  S
N64          C65   1.359       .  A
C65          N66   1.363       .  A
C65        C2107   1.480       .  S
C67          N68   1.365       .  A
C67          N72   1.362       .  A
C67        C2072   1.484       .  S
N68          C69   1.365       .  A
C69          N70   1.358       .  A
C69        C2104   1.481       .  S
N70          C71   1.356       .  A
C71          N72   1.358       .  A
C71        C2059   1.477       .  S
N73          C77   1.345       .  A
N73          N74   1.322       .  A
N73         Cu81   2.078       .  S
N74          C75   1.350       .  A
N74         Cu80   2.088       .  S
C75          C76   1.387       .  A
C75          H78   1.082       .  S
C76        C2043   1.477       .  S
C76          C77   1.383       .  A
C77          H79   1.082       .  S
Cu80         N83   2.089       .  S
Cu81         N91   2.078       .  S
Cu82         N84   2.100       .  S
Cu82         N90   2.099       .  S
N83          C87   1.347       .  A
N83          N84   1.326       .  A
N84          C85   1.350       .  A
C85          C86   1.386       .  A
C85          H88   1.082       .  S
C86         C110   1.476   1_545  S
C86          C87   1.382       .  A
C87          H89   1.082       .  S
N90          C94   1.352       .  A
N90          N91   1.322       .  A
N91          C92   1.344       .  A
C92          C93   1.386       .  A
C92          H95   1.081       .  S
C93        C2075   1.487       .  S
C93          C94   1.391       .  A
C94          H96   1.082       .  S
N97         C101   1.343       .  A
N97          N98   1.322       .  A
N97        Cu105   2.077       .  S
N98          C99   1.351       .  A
N98        Cu104   2.091       .  S
C99         C100   1.388       .  A
C99         H102   1.082       .  S
C100       C2024   1.478       .  S
C100        C101   1.383       .  A
C101        H103   1.082       .  S
Cu104       N107   2.092       .  S
Cu105       N115   2.078       .  S
Cu106       N108   2.096       .  S
Cu106       N114   2.095       .  S
N107        C111   1.347       .  A
N107        N108   1.326       .  A
N108        C109   1.349       .  A
C109        C110   1.384       .  A
C109        H112   1.082       .  S
C110        C111   1.383       .  A
C111        H113   1.082       .  S
N114        C118   1.351       .  A
N114        N115   1.322       .  A
N115        C116   1.345       .  A
C116        C117   1.387       .  A
C116        H119   1.081       .  S
C117       C2187   1.486       .  S
C117        C118   1.390       .  A
C118        H120   1.082       .  S
C121        N122   1.364       .  A
C121        N126   1.362       .  A
C121       C1992   1.478       .  S
N122        C123   1.360       .  A
C123        N124   1.356       .  A
C123       C1976   1.475       .  S
N124        C125   1.356       .  A
C125        N126   1.359       .  A
C125       C2008   1.475       .  S
C127        N128   1.359       .  A
C127        N132   1.361       .  A
C127       C1960   1.480       .  S
N128        C129   1.358       .  A
C129        N130   1.357       .  A
C129       C1944   1.473       .  S
N130        C131   1.359       .  A
C131        N132   1.363       .  A
C131       C2011   1.476       .  S
N133        C137   1.343       .  A
N133        N134   1.322       .  A
N133       Cu141   2.064       .  S
N134        C135   1.350       .  A
N134       Cu140   2.092       .  S
C135        C136   1.389       .  A
C135        H138   1.082       .  S
C136       C1912   1.477       .  S
C136        C137   1.381       .  A
C137        H139   1.082       .  S
Cu140       N143   2.093       .  S
Cu141       N151   2.064       .  S
Cu142       N144   2.098       .  S
Cu142       N150   2.097       .  S
N143        C147   1.349       .  A
N143        N144   1.326       .  A
N144        C145   1.349       .  A
C145        C146   1.384       .  A
C145        H148   1.082       .  S
C146        C170   1.476       .  S
C146        C147   1.383       .  A
C147        H149   1.082       .  S
N150        C154   1.352       .  A
N150        N151   1.321       .  A
N151        C152   1.342       .  A
C152        C153   1.384       .  A
C152        H155   1.081       .  S
C153       C1931   1.484       .  S
C153        C154   1.392       .  A
C154        H156   1.082       .  S
N157        C161   1.345       .  A
N157        N158   1.322       .  A
N157       Cu165   2.075       .  S
N158        C159   1.348       .  A
N158       Cu164   2.084       .  S
C159        C160   1.385       .  A
C159        H162   1.082       .  S
C160       C1896   1.474       .  S
C160        C161   1.383       .  A
C161        H163   1.082       .  S
Cu164       N167   2.085       .  S
Cu165       N175   2.076       .  S
Cu166       N168   2.096       .  S
Cu166       N174   2.095       .  S
N167        C171   1.347       .  A
N167        N168   1.325       .  A
N168        C169   1.349       .  A
C169        C170   1.385       .  A
C169        H172   1.082       .  S
C170        C171   1.383       .  A
C171        H173   1.082       .  S
N174        C178   1.350       .  A
N174        N175   1.322       .  A
N175        C176   1.345       .  A
C176        C177   1.386       .  A
C176        H179   1.081       .  S
C177       C1963   1.484       .  S
C177        C178   1.389       .  A
C178        H180   1.082       .  S
C181        N182   1.362       .  A
C181        N186   1.362       .  A
C181       C1864   1.478       .  S
N182        C183   1.362       .  A
C183        N184   1.357       .  A
C183       C1880   1.476       .  S
N184        C185   1.356       .  A
C185        N186   1.357       .  A
C185       C1848   1.474       .  S
C187        N188   1.362       .  A
C187        N192   1.360       .  A
C187       C1928   1.481       .  S
N188        C189   1.363       .  A
C189        N190   1.359       .  A
C189       C1883   1.477       .  S
N190        C191   1.357       .  A
C191        N192   1.358       .  A
C191       C1835   1.474       .  S
N193        C197   1.341       .  A
N193        N194   1.321       .  A
N193       Cu201   2.060       .  S
N194        C195   1.350       .  A
N194       Cu200   2.087       .  S
C195        C196   1.388       .  A
C195        H198   1.082       .  S
C196       C1816   1.476       .  S
C196        C197   1.382       .  A
C197        H199   1.082       .  S
Cu200       N203   2.089       .  S
Cu201       N211   2.061       .  S
Cu202       N204   2.091       .  S
Cu202       N210   2.090       .  S
N203        C207   1.347       .  A
N203        N204   1.326       .  A
N204        C205   1.348       .  A
C205        C206   1.383       .  A
C205        H208   1.082       .  S
C206        C230   1.473       .  S
C206        C207   1.382       .  A
C207        H209   1.082       .  S
N210        C214   1.351       .  A
N210        N211   1.321       .  A
N211        C212   1.340       .  A
C212        C213   1.382       .  A
C212        H215   1.082       .  S
C213       C1867   1.479       .  S
C213        C214   1.391       .  A
C214        H216   1.082       .  S
N217        C221   1.343       .  A
N217        N218   1.322       .  A
N217       Cu225   2.069       .  S
N218        C219   1.349       .  A
N218       Cu224   2.085       .  S
C219        C220   1.385       .  A
C219        H222   1.082       .  S
C220       C1800   1.472       .  S
C220        C221   1.382       .  A
C221        H223   1.082       .  S
Cu224       N227   2.086       .  S
Cu225       N235   2.068       .  S
Cu226       N228   2.090       .  S
Cu226       N234   2.089       .  S
N227        C231   1.347   1_565  A
N227        N228   1.325       .  A
N228        C229   1.348       .  A
C229        C230   1.383   1_565  A
C229        H232   1.082       .  S
C230        C231   1.382       .  A
C231        H233   1.082       .  S
N234        C238   1.350       .  A
N234        N235   1.321       .  A
N235        C236   1.342       .  A
C236        C237   1.384       .  A
C236        H239   1.081       .  S
C237       C1995   1.480       .  S
C237        C238   1.389       .  A
C238        H240   1.082       .  S
N241        C245   1.342       .  A
N241        N242   1.320       .  A
N241       Cu249   2.060       .  S
N242        C243   1.348       .  A
N242       Cu248   2.075       .  S
C243        C244   1.386       .  A
C243        H246   1.082       .  S
C244       C1771   1.470       .  S
C244        C245   1.380       .  A
C245        H247   1.082       .  S
Cu248       N251   2.076       .  S
Cu249       N259   2.061       .  S
Cu250       N252   2.109       .  S
Cu250       N258   2.108       .  S
N251        C255   1.345       .  A
N251        N252   1.326       .  A
N252        C253   1.350       .  A
C253        C254   1.386       .  A
C253        H256   1.082       .  S
C254        C278   1.472       .  S
C254        C255   1.379       .  A
C255        H257   1.082       .  S
N258        C262   1.353       .  A
N258        N259   1.322       .  A
N259        C260   1.341       .  A
C260        C261   1.382       .  A
C260        H263   1.081       .  S
C261       C1787   1.485       .  S
C261        C262   1.394       .  A
C262        H264   1.082       .  S
N265        C269   1.343       .  A
N265        N266   1.321       .  A
N265       Cu273   2.066       .  S
N266        C267   1.348       .  A
N266       Cu272   2.082       .  S
C267        C268   1.387       .  A
C267        H270   1.082       .  S
C268       C1736   1.473       .  S
C268        C269   1.382       .  A
C269        H271   1.082       .  S
Cu272       N275   2.084       .  S
Cu273       N283   2.066       .  S
Cu274       N276   2.096       .  S
Cu274       N282   2.094       .  S
N275        C279   1.346       .  A
N275        N276   1.325       .  A
N276        C277   1.349       .  A
C277        C278   1.384       .  A
C277        H280   1.082       .  S
C278        C279   1.381       .  A
C279        H281   1.082       .  S
N282        C286   1.351       .  A
N282        N283   1.322       .  A
N283        C284   1.342       .  A
C284        C285   1.383       .  A
C284        H287   1.082       .  S
C285       C1755   1.480       .  S
C285        C286   1.390       .  A
C286        H288   1.082       .  S
C289        N290   1.359       .  A
C289        N294   1.364       .  A
C289       C1704   1.478       .  S
N290        C291   1.355       .  A
C291        N292   1.354       .  A
C291       C1688   1.470       .  S
N292        C293   1.357       .  A
C293        N294   1.365       .  A
C293       C1720   1.475       .  S
C295        N296   1.365       .  A
C295        N300   1.363       .  A
C295       C1784   1.482       .  S
N296        C297   1.362       .  A
C297        N298   1.355       .  A
C297       C1915   1.479       .  S
N298        C299   1.355       .  A
C299        N300   1.360       .  A
C299       C1723   1.475       .  S
C301        N302   1.360       .  A
C301        N306   1.361       .  A
C301       C1656   1.478       .  S
N302        C303   1.359       .  A
C303        N304   1.358   1_655  A
C303       C1672   1.477   1_655  S
N304        C305   1.359       .  A
C305        N306   1.359   1_455  A
C305       C1640   1.473       .  S
C307        N308   1.361       .  A
C307        N312   1.362       .  A
C307       C1752   1.479       .  S
N308        C309   1.359       .  A
C309        N310   1.358       .  A
C309       C1675   1.477       .  S
N310        C311   1.357       .  A
C311        N312   1.360       .  A
C311       C2139   1.473       .  S
N313        C317   1.343       .  A
N313        N314   1.321       .  A
N313       Cu321   2.071       .  S
N314        C315   1.349       .  A
N314       Cu320   2.080       .  S
C315        C316   1.387       .  A
C315        H318   1.082       .  S
C316       C1979   1.476       .  S
C316        C317   1.383       .  A
C317        H319   1.082       .  S
Cu320       N323   2.081       .  S
Cu321       N331   2.070       .  S
Cu322       N324   2.092       .  S
Cu322       N330   2.091       .  S
N323        C327   1.346       .  A
N323        N324   1.325       .  A
N324        C325   1.348       .  A
C325        C326   1.384       .  A
C325        H328   1.082       .  S
C326        C350   1.471       .  S
C326        C327   1.380       .  A
C327        H329   1.082       .  S
N330        C334   1.350       .  A
N330        N331   1.321       .  A
N331        C332   1.343       .  A
C332        C333   1.383       .  A
C332        H335   1.082       .  S
C333       C1659   1.480       .  S
C333        C334   1.390       .  A
C334        H336   1.082       .  S
N337        C341   1.344       .  A
N337        N338   1.322       .  A
N337       Cu345   2.075       .  S
N338        C339   1.350       .  A
N338       Cu344   2.088       .  S
C339        C340   1.388       .  A
C339        H342   1.082       .  S
C340       C2171   1.477       .  S
C340        C341   1.382       .  A
C341        H343   1.082       .  S
Cu344       N347   2.089       .  S
Cu345       N355   2.075       .  S
Cu346       N348   2.084       .  S
Cu346       N354   2.083       .  S
N347        C351   1.347       .  A
N347        N348   1.325       .  A
N348        C349   1.347       .  A
C349        C350   1.382       .  A
C349        H352   1.082       .  S
C350        C351   1.382       .  A
C351        H353   1.082       .  S
N354        C358   1.349       .  A
N354        N355   1.322       .  A
N355        C356   1.343       .  A
C356        C357   1.385       .  A
C356        H359   1.081       .  S
C357       C1707   1.480       .  S
C357        C358   1.387       .  A
C358        H360   1.082       .  S
N361        C365   1.342       .  A
N361        N362   1.322       .  A
N361       Cu369   2.069       .  S
N362        C363   1.350       .  A
N362       Cu368   2.087       .  S
C363        C364   1.387       .  A
C363        H366   1.082       .  S
C364       C1851   1.473       .  S
C364        C365   1.380       .  A
C365        H367   1.082       .  S
Cu368       N371   2.088       .  S
Cu369       N379   2.069       .  S
Cu370       N372   2.089       .  S
Cu370       N378   2.088       .  S
N371        C375   1.348       .  A
N371        N372   1.326       .  A
N372        C373   1.347       .  A
C373        C374   1.382   1_556  A
C373        H376   1.082   1_556  S
C374        C398   1.471       .  S
C374        C375   1.382   1_554  A
C375        H377   1.082       .  S
N378        C382   1.350       .  A
N378        N379   1.320       .  A
N379        C380   1.343       .  A
C380        C381   1.385       .  A
C380        H383   1.081       .  S
C381       C1624   1.482       .  S
C381        C382   1.390       .  A
C382        H384   1.082       .  S
N385        C389   1.344       .  A
N385        N386   1.322       .  A
N385       Cu393   2.065       .  S
N386        C387   1.349       .  A
N386       Cu392   2.088       .  S
C387        C388   1.387       .  A
C387        H390   1.082       .  S
C388       C2056   1.472       .  S
C388        C389   1.381       .  A
C389        H391   1.082       .  S
Cu392       N395   2.089       .  S
Cu393       N403   2.065       .  S
Cu394       N396   2.087       .  S
Cu394       N402   2.085       .  S
N395        C399   1.347       .  A
N395        N396   1.325       .  A
N396        C397   1.347       .  A
C397        C398   1.382       .  A
C397        H400   1.082       .  S
C398        C399   1.382       .  A
C399        H401   1.082       .  S
N402        C406   1.350       .  A
N402        N403   1.321       .  A
N403        C404   1.341       .  A
C404        C405   1.384       .  A
C404        H407   1.081       .  S
C405       C1608   1.480       .  S
C405        C406   1.389       .  A
C406        H408   1.082       .  S
C409        N410   1.363       .  A
C409        N414   1.361   1_655  A
C409       C1627   1.479       .  S
N410        C411   1.362   1_655  A
C411        N412   1.357       .  A
C411       C1592   1.477       .  S
N412        C413   1.354       .  A
C413        N414   1.358       .  A
C413       C1576   1.470       .  S
C415        N416   1.360       .  A
C415        N420   1.365       .  A
C415       C1563   1.481       .  S
N416        C417   1.358       .  A
C417        N418   1.356       .  A
C417       C1595   1.476       .  S
N418        C419   1.358       .  A
C419        N420   1.364       .  A
C419       C2120   1.475       .  S
C421        N422   1.360       .  A
C421        N426   1.362       .  A
C421       C1611   1.477       .  S
N422        C423   1.359       .  A
C423        N424   1.358       .  A
C423       C1544   1.474       .  S
N424        C425   1.356       .  A
C425        N426   1.359       .  A
C425       C1531   1.471       .  S
C427        N428   1.354       .  A
C427        N432   1.359       .  A
C427       C1512   1.475       .  S
N428        C429   1.355       .  A
C429        N430   1.360       .  A
C429       C1547   1.474       .  S
N430        C431   1.362       .  A
C431        N432   1.362       .  A
C431       C1899   1.475       .  S
N433        C437   1.341       .  A
N433        N434   1.321       .  A
N433       Cu441   2.056       .  S
N434        C435   1.349       .  A
N434       Cu440   2.084       .  S
C435        C436   1.388       .  A
C435        H438   1.082       .  S
C436       C1496   1.473       .  S
C436        C437   1.380       .  A
C437        H439   1.082       .  S
Cu440       N443   2.085       .  S
Cu441       N451   2.056       .  S
Cu442       N444   2.093       .  S
Cu442       N450   2.091       .  S
N443        C447   1.346       .  A
N443        N444   1.326       .  A
N444        C445   1.348   1_556  A
C445        C446   1.384       .  A
C445        H448   1.082       .  S
C446        C470   1.472       .  S
C446        C447   1.381   1_554  A
C447        H449   1.082       .  S
N450        C454   1.350       .  A
N450        N451   1.321       .  A
N451        C452   1.341       .  A
C452        C453   1.380       .  A
C452        H455   1.082       .  S
C453       C1515   1.476       .  S
C453        C454   1.390       .  A
C454        H456   1.082       .  S
N457        C461   1.343       .  A
N457        N458   1.322       .  A
N457       Cu465   2.071       .  S
N458        C459   1.350       .  A
N458       Cu464   2.086       .  S
C459        C460   1.386       .  A
C459        H462   1.082       .  S
C460       C1483   1.473       .  S
C460        C461   1.382       .  A
C461        H463   1.082       .  S
Cu464       N467   2.086       .  S
Cu465       N475   2.072       .  S
Cu466       N468   2.091       .  S
Cu466       N474   2.090       .  S
N467        C471   1.347       .  A
N467        N468   1.325       .  A
N468        C469   1.348       .  A
C469        C470   1.383       .  A
C469        H472   1.082       .  S
C470        C471   1.382       .  A
C471        H473   1.082       .  S
N474        C478   1.350       .  A
N474        N475   1.321       .  A
N475        C476   1.344       .  A
C476        C477   1.384       .  A
C476        H479   1.082       .  S
C477       C1560   1.482       .  S
C477        C478   1.390       .  A
C478        H480   1.082       .  S
C481        N482   1.359       .  A
C481        N486   1.360       .  A
C481       C1448   1.478       .  S
N482        C483   1.359       .  A
C483        N484   1.358       .  A
C483       C1480   1.476       .  S
N484        C485   1.359       .  A
C485        N486   1.361       .  A
C485       C1464   1.476       .  S
C487        N488   1.364       .  A
C487        N492   1.363       .  A
C487       C1432   1.480       .  S
N488        C489   1.361       .  A
C489        N490   1.355       .  A
C489       C1467   1.477       .  S
N490        C491   1.355       .  A
C491        N492   1.359       .  A
C491       C1416   1.475       .  S
N493        C497   1.344       .  A
N493        N494   1.321       .  A
N493       Cu501   2.064       .  S
N494        C495   1.348       .  A
N494       Cu500   2.086       .  S
C495        C496   1.387       .  A
C495        H498   1.082       .  S
C496       C1528   1.474       .  S
C496        C497   1.381       .  A
C497        H499   1.082       .  S
Cu500       N503   2.088       .  S
Cu501       N511   2.064       .  S
Cu502       N504   2.086       .  S
Cu502       N510   2.085       .  S
N503        C507   1.348       .  A
N503        N504   1.326       .  A
N504        C505   1.346       .  A
C505        C506   1.380       .  A
C505        H508   1.082       .  S
C506        C530   1.468       .  S
C506        C507   1.382       .  A
C507        H509   1.082       .  S
N510        C514   1.350       .  A
N510        N511   1.321       .  A
N511        C512   1.341       .  A
C512        C513   1.383       .  A
C512        H515   1.081       .  S
C513       C1403   1.479       .  S
C513        C514   1.389       .  A
C514        H516   1.082       .  S
N517        C521   1.343       .  A
N517        N518   1.322       .  A
N517       Cu525   2.068       .  S
N518        C519   1.347       .  A
N518       Cu524   2.079       .  S
C519        C520   1.384       .  A
C519        H522   1.082       .  S
C520       C1691   1.469       .  S
C520        C521   1.381       .  A
C521        H523   1.082       .  S
Cu524       N527   2.080       .  S
Cu525       N535   2.069       .  S
Cu526       N528   2.087       .  S
Cu526       N534   2.087       .  S
N527        C531   1.346       .  A
N527        N528   1.325       .  A
N528        C529   1.347       .  A
C529        C530   1.382       .  A
C529        H532   1.082       .  S
C530        C531   1.381       .  A
C531        H533   1.082       .  S
N534        C538   1.348       .  A
N534        N535   1.321       .  A
N535        C536   1.344       .  A
C536        C537   1.384       .  A
C536        H539   1.082       .  S
C537       C1435   1.479       .  S
C537        C538   1.388       .  A
C538        H540   1.082       .  S
C541        N542   1.363       .  A
C541        N546   1.359       .  A
C541       C1368   1.478       .  S
N542        C543   1.363       .  A
C543        N544   1.359       .  A
C543       C1384   1.478       .  S
N544        C545   1.356       .  A
C545        N546   1.356       .  A
C545       C1739   1.470       .  S
C547        N548   1.359       .  A
C547        N552   1.359       .  A
C547       C1400   1.478       .  S
N548        C549   1.360       .  A
C549        N550   1.360       .  A
C549       C1387   1.476       .  S
N550        C551   1.359       .  A
C551        N552   1.359       .  A
C551       C1355   1.474       .  S
N553        C557   1.344       .  A
N553        N554   1.321       .  A
N553       Cu561   2.069       .  S
N554        C555   1.346       .  A
N554       Cu560   2.075       .  S
C555        C556   1.384       .  A
C555        H558   1.082       .  S
C556       C1336   1.471       .  S
C556        C557   1.382       .  A
C557        H559   1.082       .  S
Cu560       N563   2.075       .  S
Cu561       N571   2.070       .  S
Cu562       N564   2.093       .  S
Cu562       N570   2.093       .  S
N563        C567   1.345       .  A
N563        N564   1.324       .  A
N564        C565   1.349       .  A
C565        C566   1.384       .  A
C565        H568   1.082       .  S
C566        C590   1.470       .  S
C566        C567   1.380       .  A
C567        H569   1.082       .  S
N570        C574   1.349       .  A
N570        N571   1.322       .  A
N571        C572   1.344       .  A
C572        C573   1.384       .  A
C572        H575   1.082       .  S
C573       C1371   1.480       .  S
C573        C574   1.388       .  A
C574        H576   1.082       .  S
N577        C581   1.343       .  A
N577        N578   1.320       .  A
N577       Cu585   2.068       .  S
N578        C579   1.349       .  A
N578       Cu584   2.081       .  S
C579        C580   1.387       .  A
C579        H582   1.082       .  S
C580       C1320   1.478       .  S
C580        C581   1.384       .  A
C581        H583   1.082       .  S
Cu584       N587   2.083       .  S
Cu585       N595   2.068       .  S
Cu586       N588   2.095       .  S
Cu586       N594   2.094       .  S
N587        C591   1.345       .  A
N587        N588   1.326       .  A
N588        C589   1.349       .  A
C589        C590   1.384   1_565  A
C589        H592   1.082       .  S
C590        C591   1.379   1_545  A
C591        H593   1.082   1_565  S
N594        C598   1.351       .  A
N594        N595   1.322       .  A
N595        C596   1.342       .  A
C596        C597   1.383       .  A
C596        H599   1.081       .  S
C597       C1451   1.482       .  S
C597        C598   1.390       .  A
C598        H600   1.082       .  S
C601        N602   1.363       .  A
C601        N606   1.359       .  A
C601       C1288   1.476       .  S
N602        C603   1.362       .  A
C603        N604   1.359       .  A
C603       C1304   1.479       .  S
N604        C605   1.357       .  A
C605        N606   1.355       .  A
C605       C1272   1.472       .  S
C607        N608   1.360       .  A
C607        N612   1.364       .  A
C607       C1256   1.481       .  S
N608        C609   1.358       .  A
C609        N610   1.358       .  A
C609       C1307   1.479       .  S
N610        C611   1.360       .  A
C611        N612   1.362       .  A
C611       C2040   1.479       .  S
N613        C617   1.340       .  A
N613        N614   1.319       .  A
N613       Cu621   2.053       .  S
N614        C615   1.350       .  A
N614       Cu620   2.079       .  S
C615        C616   1.388       .  A
C615        H618   1.082       .  S
C616       C2203   1.472       .  S
C616        C617   1.381       .  A
C617        H619   1.082       .  S
Cu620       N623   2.082       .  S
Cu621       N631   2.052       .  S
Cu622       N624   2.101       .  S
Cu622       N630   2.098       .  S
N623        C627   1.345       .  A
N623        N624   1.327       .  A
N624        C625   1.349       .  A
C625        C626   1.383       .  A
C625        H628   1.082       .  S
C626        C650   1.469   1_554  S
C626        C627   1.379       .  A
C627        H629   1.082       .  S
N630        C634   1.355       .  A
N630        N631   1.320       .  A
N631        C632   1.337       .  A
C632        C633   1.379       .  A
C632        H635   1.082       .  S
C633       C1240   1.481       .  S
C633        C634   1.394       .  A
C634        H636   1.082       .  S
N637        C641   1.342       .  A
N637        N638   1.321       .  A
N637       Cu645   2.066       .  S
N638        C639   1.349       .  A
N638       Cu644   2.081       .  S
C639        C640   1.386       .  A
C639        H642   1.082       .  S
C640       C1947   1.470       .  S
C640        C641   1.380       .  A
C641        H643   1.082       .  S
Cu644       N647   2.082       .  S
Cu645       N655   2.067       .  S
Cu646       N648   2.088       .  S
Cu646       N654   2.088       .  S
N647        C651   1.345       .  A
N647        N648   1.325       .  A
N648        C649   1.348       .  A
C649        C650   1.383       .  A
C649        H652   1.082   1_556  S
C650        C651   1.380       .  A
C651        H653   1.082       .  S
N654        C658   1.349       .  A
N654        N655   1.322       .  A
N655        C656   1.343       .  A
C656        C657   1.383       .  A
C656        H659   1.081       .  S
C657       C1291   1.478       .  S
C657        C658   1.388       .  A
C658        H660   1.082       .  S
C661        N662   1.359   1_655  A
C661        N666   1.364   1_655  A
C661       C1243   1.478       .  S
N662        C663   1.359       .  A
C663        N664   1.356       .  A
C663       C1227   1.473       .  S
N664        C665   1.356       .  A
C665        N666   1.360       .  A
C665       C1323   1.469       .  S
C667        N668   1.364       .  A
C667        N672   1.362       .  A
C667       C1211   1.479       .  S
N668        C669   1.359       .  A
C669        N670   1.354       .  A
C669       C1819   1.468       .  S
N670        C671   1.354       .  A
C671        N672   1.360       .  A
C671       C1224   1.473       .  S
N673        C677   1.344       .  A
N673        N674   1.320       .  A
N673       Cu681   2.072       .  S
N674        C675   1.348       .  A
N674       Cu680   2.072       .  S
C675        C676   1.384       .  A
C675        H678   1.082       .  S
C676       C1352   1.472       .  S
C676        C677   1.383       .  A
C677        H679   1.082       .  S
Cu680       N683   2.072       .  S
Cu681       N691   2.073       .  S
Cu682       N684   2.097       .  S
Cu682       N690   2.098       .  S
N683        C687   1.343       .  A
N683        N684   1.325       .  A
N684        C685   1.350       .  A
C685        C686   1.385       .  A
C685        H688   1.082       .  S
C686        C710   1.469   1_554  S
C686        C687   1.378       .  A
C687        H689   1.082       .  S
N690        C694   1.351       .  A
N690        N691   1.323       .  A
N691        C692   1.343       .  A
C692        C693   1.382       .  A
C692        H695   1.082       .  S
C693       C1259   1.481       .  S
C693        C694   1.390       .  A
C694        H696   1.082       .  S
N697        C701   1.342       .  A
N697        N698   1.321       .  A
N697       Cu705   2.068       .  S
N698        C699   1.348       .  A
N698       Cu704   2.076       .  S
C699        C700   1.386       .  A
C699        H702   1.082       .  S
C700       C1195   1.474       .  S
C700        C701   1.383       .  A
C701        H703   1.082       .  S
Cu704       N707   2.078       .  S
Cu705       N715   2.069       .  S
Cu706       N708   2.089       .  S
Cu706       N714   2.088       .  S
N707        C711   1.344       .  A
N707        N708   1.325       .  A
N708        C709   1.349       .  A
C709        C710   1.383       .  A
C709        H712   1.082       .  S
C710        C711   1.380       .  A
C711        H713   1.082       .  S
N714        C718   1.350       .  A
N714        N715   1.321       .  A
N715        C716   1.342       .  A
C716        C717   1.383       .  A
C716        H719   1.082       .  S
C717       C1208   1.480       .  S
C717        C718   1.390       .  A
C718        H720   1.082       .  S
C721        N722   1.363       .  A
C721        N726   1.358       .  A
C721       C1160   1.479       .  S
N722        C723   1.364       .  A
C723        N724   1.360       .  A
C723       C1176   1.480       .  S
N724        C725   1.356       .  A
C725        N726   1.357       .  A
C725       C1499   1.472       .  S
C727        N728   1.362       .  A
C727        N732   1.363       .  A
C727       C1147   1.481       .  S
N728        C729   1.360       .  A
C729        N730   1.357       .  A
C729       C1179   1.479       .  S
N730        C731   1.358       .  A
C731        N732   1.361       .  A
C731       C1128   1.474       .  S
N733        C737   1.343       .  A
N733        N734   1.321       .  A
N733       Cu741   2.064       .  S
N734        C735   1.347       .  A
N734       Cu740   2.077       .  S
C735        C736   1.384       .  A
C735        H738   1.082       .  S
C736       C1579   1.470       .  S
C736        C737   1.382       .  A
C737        H739   1.082       .  S
Cu740       N743   2.078       .  S
Cu741       N751   2.064       .  S
Cu742       N744   2.084       .  S
Cu742       N750   2.084       .  S
N743        C747   1.345       .  A
N743        N744   1.324       .  A
N744        C745   1.347       .  A
C745        C746   1.383       .  A
C745        H748   1.082       .  S
C746        C770   1.469       .  S
C746        C747   1.380       .  A
C747        H749   1.082       .  S
N750        C754   1.349       .  A
N750        N751   1.321       .  A
N751        C752   1.341       .  A
C752        C753   1.383       .  A
C752        H755   1.081       .  S
C753       C1115   1.477       .  S
C753        C754   1.388       .  A
C754        H756   1.082       .  S
N757        C761   1.341       .  A
N757        N758   1.322       .  A
N757       Cu765   2.069       .  S
N758        C759   1.350       .  A
N758       Cu764   2.083       .  S
C759        C760   1.387       .  A
C759        H762   1.082       .  S
C760       C1643   1.472       .  S
C760        C761   1.380       .  A
C761        H763   1.082       .  S
Cu764       N767   2.084       .  S
Cu765       N775   2.069       .  S
Cu766       N768   2.085       .  S
Cu766       N774   2.085       .  S
N767        C771   1.346       .  A
N767        N768   1.325       .  A
N768        C769   1.347       .  A
C769        C770   1.382       .  A
C769        H772   1.082       .  S
C770        C771   1.381       .  A
C771        H773   1.082       .  S
N774        C778   1.348       .  A
N774        N775   1.320       .  A
N775        C776   1.345       .  A
C776        C777   1.385       .  A
C776        H779   1.082       .  S
C777       C1144   1.481       .  S
C777        C778   1.389       .  A
C778        H780   1.082       .  S
N781        C785   1.341       .  A
N781        N782   1.321       .  A
N781       Cu789   2.060       .  S
N782        C783   1.350       .  A
N782       Cu788   2.086       .  S
C783        C784   1.387       .  A
C783        H786   1.082       .  S
C784       C1080   1.472       .  S
C784        C785   1.381       .  A
C785        H787   1.082       .  S
Cu788       N791   2.087       .  S
Cu789       N799   2.059       .  S
Cu790       N792   2.098       .  S
Cu790       N798   2.096       .  S
N791        C795   1.346       .  A
N791        N792   1.326       .  A
N792        C793   1.349       .  A
C793        C794   1.385       .  A
C793        H796   1.082       .  S
C794        C818   1.474   1_545  S
C794        C795   1.381       .  A
C795        H797   1.082       .  S
N798        C802   1.352       .  A
N798        N799   1.321       .  A
N799        C800   1.341       .  A
C800        C801   1.382       .  A
C800        H803   1.081       .  S
C801       C1096   1.482       .  S
C801        C802   1.392       .  A
C802        H804   1.082       .  S
N805        C809   1.341       .  A
N805        N806   1.322       .  A
N805       Cu813   2.060       .  S
N806        C807   1.350       .  A
N806       Cu812   2.085       .  S
C807        C808   1.386       .  A
C807        H810   1.082       .  S
C808       C1275   1.468       .  S
C808        C809   1.378       .  A
C809        H811   1.082       .  S
Cu812       N815   2.087       .  S
Cu813       N823   2.060       .  S
Cu814       N816   2.094       .  S
Cu814       N822   2.093       .  S
N815        C819   1.347       .  A
N815        N816   1.326       .  A
N816        C817   1.349       .  A
C817        C818   1.384       .  A
C817        H820   1.082       .  S
C818        C819   1.382       .  A
C819        H821   1.082   1_565  S
N822        C826   1.349       .  A
N822        N823   1.320       .  A
N823        C824   1.343       .  A
C824        C825   1.384       .  A
C824        H827   1.081       .  S
C825       C1163   1.481       .  S
C825        C826   1.390       .  A
C826        H828   1.082       .  S
C829        N830   1.362       .  A
C829        N834   1.363       .  A
C829       C1112   1.474       .  S
N830        C831   1.358       .  A
C831        N832   1.356       .  A
C831       C1064   1.474       .  S
N832        C833   1.355       .  A
C833        N834   1.358       .  A
C833       C1192   1.470       .  S
C835        N836   1.359       .  A
C835        N840   1.358       .  A
C835       C1099   1.477       .  S
N836        C837   1.360       .  A
C837        N838   1.358       .  A
C837       C1768   1.470       .  S
N838        C839   1.359       .  A
C839        N840   1.359       .  A
C839       C1067   1.473       .  S
N841        C845   1.342       .  A
N841        N842   1.322       .  A
N841       Cu849   2.065       .  S
N842        C843   1.351       .  A
N842       Cu848   2.090       .  S
C843        C844   1.388       .  A
C843        H846   1.082       .  S
C844       C1419   1.473       .  S
C844        C845   1.381       .  A
C845        H847   1.082       .  S
Cu848       N851   2.091       .  S
Cu849       N859   2.065       .  S
Cu850       N852   2.099       .  S
Cu850       N858   2.098       .  S
N851        C855   1.348       .  A
N851        N852   1.326       .  A
N852        C853   1.349       .  A
C853        C854   1.385       .  A
C853        H856   1.082       .  S
C854        C878   1.477       .  S
C854        C855   1.382       .  A
C855        H857   1.082       .  S
N858        C862   1.352       .  A
N858        N859   1.321       .  A
N859        C860   1.342       .  A
C860        C861   1.384       .  A
C860        H863   1.081       .  S
C861       C1048   1.484       .  S
C861        C862   1.391       .  A
C862        H864   1.082       .  S
N865        C869   1.342       .  A
N865        N866   1.322       .  A
N865       Cu873   2.064       .  S
N866        C867   1.351       .  A
N866       Cu872   2.096       .  S
C867        C868   1.390       .  A
C867        H870   1.082       .  S
C868       C1131   1.479       .  S
C868        C869   1.382       .  A
C869        H871   1.082       .  S
Cu872       N875   2.097       .  S
Cu873       N883   2.064       .  S
Cu874       N876   2.094       .  S
Cu874       N882   2.092       .  S
N875        C879   1.349       .  A
N875        N876   1.326       .  A
N876        C877   1.348       .  A
C877        C878   1.383       .  A
C877        H880   1.082       .  S
C878        C879   1.384       .  A
C879        H881   1.082       .  S
N882        C886   1.351       .  A
N882        N883   1.321       .  A
N883        C884   1.342       .  A
C884        C885   1.382       .  A
C884        H887   1.082       .  S
C885       C1035   1.480       .  S
C885        C886   1.391       .  A
C886        H888   1.082       .  S
N889        C893   1.344       .  A
N889        N890   1.322       .  A
N889       Cu897   2.066       .  S
N890        C891   1.349       .  A
N890       Cu896   2.094       .  S
C891        C892   1.388       .  A
C891        H894   1.082       .  S
C892       C2091   1.475       .  S
C892        C893   1.381       .  A
C893        H895   1.082       .  S
Cu896       N899   2.094       .  S
Cu897       N907   2.066       .  S
Cu898       N900   2.083       .  S
Cu898       N906   2.081       .  S
N899        C903   1.350       .  A
N899        N900   1.325       .  A
N900        C901   1.345       .  A
C901        C902   1.381       .  A
C901        H904   1.082       .  S
C902        C926   1.472       .  S
C902        C903   1.385       .  A
C903        H905   1.082       .  S
N906        C910   1.348       .  A
N906        N907   1.320       .  A
N907        C908   1.342       .  A
C908        C909   1.384       .  A
C908        H911   1.081       .  S
C909       C1016   1.478       .  S
C909        C910   1.388       .  A
C910        H912   1.082       .  S
N913        C917   1.343       .  A
N913        N914   1.321       .  A
N913       Cu921   2.071       .  S
N914        C915   1.348       .  A
N914       Cu920   2.079       .  S
C915        C916   1.386       .  A
C915        H918   1.082       .  S
C916       C1832   1.475       .  S
C916        C917   1.383       .  A
C917        H919   1.082       .  S
Cu920       N923   2.080       .  S
Cu921       N931   2.071       .  S
Cu922       N924   2.099       .  S
Cu922       N930   2.099       .  S
N923        C927   1.344       .  A
N923        N924   1.325       .  A
N924        C925   1.351       .  A
C925        C926   1.385       .  A
C925        H928   1.082       .  S
C926        C927   1.380       .  A
C927        H929   1.082       .  S
N930        C934   1.351       .  A
N930        N931   1.322       .  A
N931        C932   1.344       .  A
C932        C933   1.383       .  A
C932        H935   1.082       .  S
C933       C1003   1.484       .  S
C933        C934   1.391       .  A
C934        H936   1.082       .  S
C937        N938   1.366       .  A
C937        N942   1.363       .  A
C937       C1032   1.479       .  S
N938        C939   1.361       .  A
C939        N940   1.354       .  A
C939       C1803   1.475       .  S
N940        C941   1.353       .  A
C941        N942   1.358       .  A
C941        C984   1.475       .  S
C943        N944   1.361       .  A
C943        N948   1.360       .  A
C943       C1019   1.475       .  S
N944        C945   1.360       .  A
C945        N946   1.356   1_655  A
C945        C987   1.474   1_655  S
N946        C947   1.356       .  A
C947        N948   1.358   1_455  A
C947       C1339   1.467       .  S
C949        N950   1.362       .  A
C949        N954   1.364       .  A
C949       C1051   1.482       .  S
N950        C951   1.358       .  A
C951        N952   1.356       .  A
C951       C2027   1.474       .  S
N952        C953   1.358       .  A
C953        N954   1.364       .  A
C953        C968   1.479       .  S
C955        N956   1.365       .  A
C955        N960   1.363       .  A
C955       C1000   1.482       .  S
N956        C957   1.362       .  A
C957        N958   1.356       .  A
C957       C1083   1.475       .  S
N958        C959   1.354       .  A
C959        N960   1.360       .  A
C959        C971   1.478       .  S
C961        C966   1.387   1_545  A
C961        C962   1.403       .  A
C961        S967   1.705   1_545  A
C962        C963   1.403       .  A
C962        H973   1.083       .  S
C963        C972   1.375       .  A
C963        C964   1.387       .  A
C964        C965   1.404       .  A
C964        S970   1.705       .  A
C965        C966   1.403   1_545  A
C965        H974   1.083       .  S
C966        C969   1.375       .  A
S967        C968   1.726       .  A
C968        C969   1.388       .  A
C969        H975   1.083       .  S
S970        C971   1.726       .  A
C971        C972   1.388       .  A
C972        H976   1.083       .  S
C977        C982   1.386       .  A
C977        C978   1.403       .  A
C977        S983   1.713       .  A
C978        C979   1.405   1_565  A
C978        H989   1.083       .  S
C979        C988   1.370       .  A
C979        C980   1.387       .  A
C980        C981   1.399       .  A
C980        S986   1.707   1_455  A
C981        C982   1.401   1_545  A
C981        H990   1.083   1_455  S
C982        C985   1.366       .  A
S983        C984   1.724       .  A
C984        C985   1.387       .  A
C985        H991   1.083       .  S
S986        C987   1.722   1_655  A
C987        C988   1.389       .  A
C988        H992   1.083       .  S
C993        C998   1.386       .  A
C993        C994   1.405       .  A
C993        S999   1.708       .  A
C994        C995   1.405       .  A
C994       H1005   1.083       .  S
C995       C1004   1.377       .  A
C995        C996   1.386       .  A
C996        C997   1.405       .  A
C996       S1002   1.707       .  A
C997        C998   1.405       .  A
C997       H1006   1.083       .  S
C998       C1001   1.376       .  A
S999       C1000   1.726       .  A
C1000      C1001   1.390       .  A
C1001      H1007   1.083       .  S
S1002      C1003   1.727       .  A
C1003      C1004   1.389       .  A
C1004      H1008   1.082       .  S
C1009      C1014   1.386       .  A
C1009      C1010   1.404       .  A
C1009      S1015   1.711       .  A
C1010      C1011   1.405       .  A
C1010      H1021   1.083       .  S
C1011      C1020   1.373       .  A
C1011      C1012   1.387       .  A
C1012      C1013   1.400       .  A
C1012      S1018   1.706       .  A
C1013      C1014   1.401       .  A
C1013      H1022   1.083       .  S
C1014      C1017   1.368       .  A
S1015      C1016   1.726       .  A
C1016      C1017   1.387       .  A
C1017      H1023   1.082       .  S
S1018      C1019   1.722       .  A
C1019      C1020   1.389       .  A
C1020      H1024   1.083       .  S
C1025      C1030   1.386       .  A
C1025      C1026   1.405       .  A
C1025      S1031   1.709       .  A
C1026      C1027   1.405       .  A
C1026      H1037   1.083       .  S
C1027      C1036   1.376       .  A
C1027      C1028   1.387       .  A
C1028      C1029   1.402       .  A
C1028      S1034   1.705       .  A
C1029      C1030   1.402       .  A
C1029      H1038   1.083       .  S
C1030      C1033   1.373       .  A
S1031      C1032   1.726       .  A
C1032      C1033   1.388       .  A
C1033      H1039   1.083       .  S
S1034      C1035   1.725       .  A
C1035      C1036   1.389       .  A
C1036      H1040   1.083       .  S
C1041      C1046   1.385       .  A
C1041      C1042   1.408       .  A
C1041      S1047   1.716       .  A
C1042      C1043   1.409       .  A
C1042      H1053   1.083       .  S
C1043      C1052   1.379       .  A
C1043      C1044   1.386       .  A
C1044      C1045   1.400       .  A
C1044      S1050   1.705       .  A
C1045      C1046   1.401       .  A
C1045      H1054   1.083       .  S
C1046      C1049   1.370       .  A
S1047      C1048   1.727       .  A
C1048      C1049   1.388       .  A
C1049      H1055   1.082       .  S
S1050      C1051   1.724       .  A
C1051      C1052   1.392       .  A
C1052      H1056   1.083       .  S
C1057      C1062   1.386       .  A
C1057      C1058   1.404       .  A
C1057      S1063   1.712       .  A
C1058      C1059   1.405       .  A
C1058      H1069   1.083       .  S
C1059      C1068   1.373       .  A
C1059      C1060   1.387       .  A
C1060      C1061   1.398       .  A
C1060      S1066   1.704       .  A
C1061      C1062   1.400       .  A
C1061      H1070   1.083       .  S
C1062      C1065   1.366       .  A
S1063      C1064   1.725       .  A
C1064      C1065   1.386       .  A
C1065      H1071   1.083       .  S
S1066      C1067   1.722       .  A
C1067      C1068   1.389       .  A
C1068      H1072   1.083       .  S
C1073      C1078   1.387       .  A
C1073      C1074   1.407       .  A
C1073      S1079   1.714       .  A
C1074      C1075   1.408       .  A
C1074      H1085   1.083       .  S
C1075      C1084   1.377       .  A
C1075      C1076   1.387       .  A
C1076      C1077   1.398       .  A
C1076      S1082   1.701       .  A
C1077      C1078   1.399       .  A
C1077      H1086   1.083       .  S
C1078      C1081   1.367       .  A
S1079      C1080   1.724       .  A
C1080      C1081   1.384       .  A
C1081      H1087   1.083       .  S
S1082      C1083   1.722       .  A
C1083      C1084   1.389       .  A
C1084      H1088   1.083       .  S
C1089      C1094   1.385       .  A
C1089      C1090   1.405       .  A
C1089      S1095   1.714       .  A
C1090      C1091   1.406       .  A
C1090      H1101   1.083       .  S
C1091      C1100   1.373       .  A
C1091      C1092   1.386       .  A
C1092      C1093   1.400       .  A
C1092      S1098   1.708       .  A
C1093      C1094   1.402       .  A
C1093      H1102   1.083       .  S
C1094      C1097   1.368       .  A
S1095      C1096   1.726       .  A
C1096      C1097   1.389       .  A
C1097      H1103   1.082       .  S
S1098      C1099   1.723       .  A
C1099      C1100   1.390       .  A
C1100      H1104   1.083       .  S
C1105      C1110   1.387       .  A
C1105      C1106   1.399       .  A
C1105      S1111   1.705       .  A
C1106      C1107   1.401       .  A
C1106      H1117   1.083       .  S
C1107      C1116   1.367       .  A
C1107      C1108   1.386       .  A
C1108      C1109   1.404       .  A
C1108      S1114   1.711       .  A
C1109      C1110   1.405       .  A
C1109      H1118   1.083       .  S
C1110      C1113   1.372       .  A
S1111      C1112   1.722       .  A
C1112      C1113   1.389       .  A
C1113      H1119   1.083       .  S
S1114      C1115   1.725       .  A
C1115      C1116   1.387       .  A
C1116      H1120   1.082       .  S
C1121      C1126   1.387       .  A
C1121      C1122   1.399       .  A
C1121      S1127   1.704       .  A
C1122      C1123   1.400       .  A
C1122      H1133   1.083       .  S
C1123      C1132   1.368       .  A
C1123      C1124   1.386       .  A
C1124      C1125   1.408       .  A
C1124      S1130   1.716       .  A
C1125      C1126   1.408       .  A
C1125      H1134   1.083       .  S
C1126      C1129   1.377       .  A
S1127      C1128   1.721       .  A
C1128      C1129   1.390       .  A
C1129      H1135   1.083       .  S
S1130      C1131   1.726       .  A
C1131      C1132   1.386       .  A
C1132      H1136   1.083       .  S
C1137      C1142   1.386       .  A
C1137      C1138   1.404       .  A
C1137      S1143   1.708       .  A
C1138      C1139   1.404       .  A
C1138      H1149   1.083       .  S
C1139      C1148   1.375       .  A
C1139      C1140   1.386       .  A
C1140      C1141   1.404       .  A
C1140      S1146   1.709       .  A
C1141      C1142   1.404       .  A
C1141      H1150   1.083       .  S
C1142      C1145   1.375       .  A
S1143      C1144   1.726       .  A
C1144      C1145   1.389       .  A
C1145      H1151   1.082       .  S
S1146      C1147   1.726       .  A
C1147      C1148   1.389       .  A
C1148      H1152   1.083       .  S
C1153      C1158   1.387       .  A
C1153      C1154   1.402       .  A
C1153      S1159   1.706       .  A
C1154      C1155   1.403       .  A
C1154      H1165   1.083       .  S
C1155      C1164   1.371       .  A
C1155      C1156   1.386       .  A
C1156      C1157   1.405       .  A
C1156      S1162   1.711       .  A
C1157      C1158   1.405       .  A
C1157      H1166   1.083       .  S
C1158      C1161   1.375       .  A
S1159      C1160   1.726       .  A
C1160      C1161   1.389       .  A
C1161      H1167   1.083       .  S
S1162      C1163   1.725       .  A
C1163      C1164   1.389       .  A
C1164      H1168   1.082       .  S
C1169      C1174   1.386       .  A
C1169      C1170   1.404       .  A
C1169      S1175   1.712       .  A
C1170      C1171   1.405       .  A
C1170      H1181   1.083       .  S
C1171      C1180   1.372       .  A
C1171      C1172   1.386       .  A
C1172      C1173   1.402       .  A
C1172      S1178   1.710       .  A
C1173      C1174   1.404       .  A
C1173      H1182   1.083       .  S
C1174      C1177   1.370       .  A
S1175      C1176   1.725       .  A
C1176      C1177   1.389       .  A
C1177      H1183   1.083       .  S
S1178      C1179   1.724       .  A
C1179      C1180   1.390       .  A
C1180      H1184   1.083       .  S
C1185      C1190   1.388       .  A
C1185      C1186   1.396       .  A
C1185      S1191   1.700       .  A
C1186      C1187   1.397       .  A
C1186      H1197   1.083       .  S
C1187      C1196   1.366       .  A
C1187      C1188   1.386       .  A
C1188      C1189   1.407       .  A
C1188      S1194   1.714       .  A
C1189      C1190   1.408       .  A
C1189      H1198   1.083       .  S
C1190      C1193   1.377       .  A
S1191      C1192   1.719       .  A
C1192      C1193   1.389       .  A
C1193      H1199   1.083       .  S
S1194      C1195   1.726       .  A
C1195      C1196   1.383       .  A
C1196      H1200   1.083       .  S
C1201      C1206   1.386       .  A
C1201      C1202   1.400       .  A
C1201      S1207   1.703       .  A
C1202      C1203   1.401       .  A
C1202      H1213   1.083       .  S
C1203      C1212   1.371       .  A
C1203      C1204   1.386       .  A
C1204      C1205   1.406       .  A
C1204      S1210   1.711       .  A
C1205      C1206   1.406       .  A
C1205      H1214   1.083       .  S
C1206      C1209   1.377       .  A
S1207      C1208   1.724       .  A
C1208      C1209   1.390       .  A
C1209      H1215   1.082       .  S
S1210      C1211   1.727       .  A
C1211      C1212   1.387       .  A
C1212      H1216   1.083       .  S
C1217      C1222   1.387       .  A
C1217      C1218   1.401   1_545  A
C1217      S1223   1.703       .  A
C1218      C1219   1.401   1_556  A
C1218      H1229   1.083       .  S
C1219      C1228   1.370       .  A
C1219      C1220   1.387       .  A
C1220      C1221   1.402   1_565  A
C1220      S1226   1.706       .  A
C1221      C1222   1.402   1_554  A
C1221      H1230   1.083       .  S
C1222      C1225   1.372       .  A
S1223      C1224   1.725       .  A
C1224      C1225   1.387       .  A
C1225      H1231   1.083       .  S
S1226      C1227   1.725       .  A
C1227      C1228   1.386       .  A
C1228      H1232   1.083       .  S
C1233      C1238   1.387       .  A
C1233      C1234   1.399       .  A
C1233      S1239   1.697       .  A
C1234      C1235   1.398       .  A
C1234      H1245   1.083       .  S
C1235      C1244   1.371       .  A
C1235      C1236   1.386       .  A
C1236      C1237   1.408       .  A
C1236      S1242   1.711       .  A
C1237      C1238   1.407       .  A
C1237      H1246   1.083       .  S
C1238      C1241   1.380       .  A
S1239      C1240   1.724       .  A
C1240      C1241   1.391       .  A
C1241      H1247   1.083       .  S
S1242      C1243   1.729       .  A
C1243      C1244   1.385       .  A
C1244      H1248   1.083       .  S
C1249      C1254   1.386       .  A
C1249      C1250   1.406       .  A
C1249      S1255   1.709       .  A
C1250      C1251   1.405       .  A
C1250      H1261   1.083       .  S
C1251      C1260   1.377       .  A
C1251      C1252   1.386       .  A
C1252      C1253   1.403       .  A
C1252      S1258   1.706       .  A
C1253      C1254   1.403       .  A
C1253      H1262   1.083       .  S
C1254      C1257   1.375       .  A
S1255      C1256   1.727       .  A
C1256      C1257   1.389       .  A
C1257      H1263   1.083       .  S
S1258      C1259   1.725       .  A
C1259      C1260   1.389       .  A
C1260      H1264   1.082       .  S
C1265      C1270   1.387       .  A
C1265      C1266   1.404       .  A
C1265      S1271   1.709       .  A
C1266      C1267   1.404       .  A
C1266      H1277   1.083       .  S
C1267      C1276   1.374       .  A
C1267      C1268   1.388       .  A
C1268      C1269   1.399       .  A
C1268      S1274   1.702       .  A
C1269      C1270   1.399       .  A
C1269      H1278   1.083       .  S
C1270      C1273   1.369       .  A
S1271      C1272   1.725       .  A
C1272      C1273   1.385       .  A
C1273      H1279   1.083       .  S
S1274      C1275   1.720       .  A
C1275      C1276   1.386       .  A
C1276      H1280   1.083       .  S
C1281      C1286   1.387       .  A
C1281      C1282   1.400       .  A
C1281      S1287   1.704       .  A
C1282      C1283   1.401       .  A
C1282      H1293   1.083       .  S
C1283      C1292   1.369       .  A
C1283      C1284   1.386       .  A
C1284      C1285   1.405       .  A
C1284      S1290   1.711       .  A
C1285      C1286   1.405       .  A
C1285      H1294   1.083       .  S
C1286      C1289   1.374       .  A
S1287      C1288   1.724       .  A
C1288      C1289   1.389       .  A
C1289      H1295   1.083       .  S
S1290      C1291   1.725       .  A
C1291      C1292   1.387       .  A
C1292      H1296   1.082       .  S
C1297      C1302   1.386       .  A
C1297      C1298   1.404   1_556  A
C1297      S1303   1.712       .  A
C1298      C1299   1.406   1_565  A
C1298      H1309   1.083       .  S
C1299      C1308   1.374       .  A
C1299      C1300   1.386       .  A
C1300      C1301   1.402   1_554  A
C1300      S1306   1.708       .  A
C1301      C1302   1.403   1_545  A
C1301      H1310   1.083       .  S
C1302      C1305   1.370       .  A
S1303      C1304   1.725       .  A
C1304      C1305   1.389       .  A
C1305      H1311   1.083       .  S
S1306      C1307   1.724       .  A
C1307      C1308   1.390       .  A
C1308      H1312   1.083       .  S
C1313      C1318   1.386       .  A
C1313      C1314   1.407       .  A
C1313      S1319   1.714       .  A
C1314      C1315   1.407       .  A
C1314      H1325   1.083       .  S
C1315      C1324   1.376       .  A
C1315      C1316   1.388       .  A
C1316      C1317   1.399       .  A
C1316      S1322   1.705       .  A
C1317      C1318   1.400       .  A
C1317      H1326   1.083       .  S
C1318      C1321   1.369       .  A
S1319      C1320   1.726       .  A
C1320      C1321   1.386       .  A
C1321      H1327   1.083       .  S
S1322      C1323   1.720       .  A
C1323      C1324   1.388       .  A
C1324      H1328   1.083       .  S
C1329      C1334   1.387       .  A
C1329      C1330   1.400       .  A
C1329      S1335   1.707       .  A
C1330      C1331   1.401       .  A
C1330      H1341   1.083       .  S
C1331      C1340   1.367       .  A
C1331      C1332   1.387       .  A
C1332      C1333   1.402       .  A
C1332      S1338   1.710       .  A
C1333      C1334   1.403       .  A
C1333      H1342   1.083       .  S
C1334      C1337   1.369       .  A
S1335      C1336   1.722       .  A
C1336      C1337   1.386       .  A
C1337      H1343   1.083       .  S
S1338      C1339   1.722       .  A
C1339      C1340   1.384       .  A
C1340      H1344   1.083       .  S
C1345      C1350   1.387       .  A
C1345      C1346   1.405       .  A
C1345      S1351   1.713       .  A
C1346      C1347   1.406       .  A
C1346      H1357   1.083       .  S
C1347      C1356   1.374       .  A
C1347      C1348   1.387       .  A
C1348      C1349   1.400       .  A
C1348      S1354   1.706       .  A
C1349      C1350   1.401       .  A
C1349      H1358   1.083       .  S
C1350      C1353   1.369       .  A
S1351      C1352   1.724       .  A
C1352      C1353   1.384       .  A
C1353      H1359   1.083       .  S
S1354      C1355   1.722       .  A
C1355      C1356   1.389       .  A
C1356      H1360   1.083       .  S
C1361      C1366   1.387       .  A
C1361      C1362   1.402       .  A
C1361      S1367   1.705       .  A
C1362      C1363   1.402       .  A
C1362      H1373   1.083       .  S
C1363      C1372   1.371       .  A
C1363      C1364   1.386       .  A
C1364      C1365   1.405       .  A
C1364      S1370   1.711       .  A
C1365      C1366   1.406       .  A
C1365      H1374   1.083       .  S
C1366      C1369   1.376       .  A
S1367      C1368   1.725       .  A
C1368      C1369   1.389       .  A
C1369      H1375   1.083       .  S
S1370      C1371   1.725       .  A
C1371      C1372   1.388       .  A
C1372      H1376   1.083       .  S
C1377      C1382   1.386       .  A
C1377      C1378   1.403       .  A
C1377      S1383   1.711       .  A
C1378      C1379   1.404       .  A
C1378      H1389   1.083       .  S
C1379      C1388   1.372       .  A
C1379      C1380   1.387       .  A
C1380      C1381   1.402       .  A
C1380      S1386   1.708       .  A
C1381      C1382   1.403       .  A
C1381      H1390   1.083       .  S
C1382      C1385   1.370       .  A
S1383      C1384   1.724       .  A
C1384      C1385   1.389       .  A
C1385      H1391   1.083       .  S
S1386      C1387   1.725       .  A
C1387      C1388   1.388       .  A
C1388      H1392   1.083       .  S
C1393      C1398   1.387       .  A
C1393      C1394   1.400       .  A
C1393      S1399   1.707       .  A
C1394      C1395   1.401       .  A
C1394      H1405   1.083       .  S
C1395      C1404   1.368       .  A
C1395      C1396   1.386       .  A
C1396      C1397   1.405       .  A
C1396      S1402   1.713       .  A
C1397      C1398   1.406       .  A
C1397      H1406   1.083       .  S
C1398      C1401   1.373       .  A
S1399      C1400   1.723       .  A
C1400      C1401   1.390       .  A
C1401      H1407   1.083       .  S
S1402      C1403   1.726       .  A
C1403      C1404   1.388       .  A
C1404      H1408   1.082       .  S
C1409      C1414   1.386       .  A
C1409      C1410   1.407       .  A
C1409      S1415   1.715       .  A
C1410      C1411   1.408       .  A
C1410      H1421   1.083       .  S
C1411      C1420   1.377       .  A
C1411      C1412   1.387       .  A
C1412      C1413   1.398       .  A
C1412      S1418   1.702       .  A
C1413      C1414   1.399       .  A
C1413      H1422   1.083       .  S
C1414      C1417   1.366       .  A
S1415      C1416   1.726       .  A
C1416      C1417   1.385       .  A
C1417      H1423   1.083       .  S
S1418      C1419   1.720       .  A
C1419      C1420   1.389       .  A
C1420      H1424   1.083       .  S
C1425      C1430   1.386       .  A
C1425      C1426   1.403       .  A
C1425      S1431   1.708       .  A
C1426      C1427   1.403       .  A
C1426      H1437   1.083       .  S
C1427      C1436   1.372       .  A
C1427      C1428   1.386       .  A
C1428      C1429   1.404       .  A
C1428      S1434   1.710       .  A
C1429      C1430   1.405       .  A
C1429      H1438   1.083       .  S
C1430      C1433   1.374       .  A
S1431      C1432   1.725       .  A
C1432      C1433   1.389       .  A
C1433      H1439   1.083       .  S
S1434      C1435   1.725       .  A
C1435      C1436   1.389       .  A
C1436      H1440   1.083       .  S
C1441      C1446   1.387       .  A
C1441      C1442   1.400       .  A
C1441      S1447   1.707       .  A
C1442      C1443   1.402       .  A
C1442      H1453   1.083       .  S
C1443      C1452   1.369       .  A
C1443      C1444   1.385       .  A
C1444      C1445   1.406       .  A
C1444      S1450   1.714       .  A
C1445      C1446   1.407       .  A
C1445      H1454   1.083       .  S
C1446      C1449   1.375       .  A
S1447      C1448   1.724       .  A
C1448      C1449   1.390       .  A
C1449      H1455   1.083       .  S
S1450      C1451   1.726       .  A
C1451      C1452   1.388       .  A
C1452      H1456   1.082       .  S
C1457      C1462   1.387       .  A
C1457      C1458   1.400       .  A
C1457      S1463   1.708       .  A
C1458      C1459   1.402       .  A
C1458      H1469   1.083       .  S
C1459      C1468   1.368       .  A
C1459      C1460   1.386       .  A
C1460      C1461   1.403       .  A
C1460      S1466   1.713       .  A
C1461      C1462   1.405       .  A
C1461      H1470   1.083       .  S
C1462      C1465   1.371       .  A
S1463      C1464   1.723       .  A
C1464      C1465   1.389       .  A
C1465      H1471   1.083       .  S
S1466      C1467   1.725       .  A
C1467      C1468   1.388       .  A
C1468      H1472   1.083       .  S
C1473      C1478   1.387       .  A
C1473      C1474   1.400       .  A
C1473      S1479   1.706       .  A
C1474      C1475   1.401       .  A
C1474      H1485   1.083       .  S
C1475      C1484   1.368       .  A
C1475      C1476   1.387       .  A
C1476      C1477   1.405       .  A
C1476      S1482   1.713       .  A
C1477      C1478   1.406       .  A
C1477      H1486   1.083       .  S
C1478      C1481   1.373       .  A
S1479      C1480   1.722       .  A
C1480      C1481   1.390       .  A
C1481      H1487   1.083       .  S
S1482      C1483   1.724       .  A
C1483      C1484   1.385       .  A
C1484      H1488   1.083       .  S
C1489      C1494   1.387       .  A
C1489      C1490   1.399       .  A
C1489      S1495   1.703       .  A
C1490      C1491   1.400       .  A
C1490      H1501   1.083       .  S
C1491      C1500   1.369       .  A
C1491      C1492   1.387       .  A
C1492      C1493   1.404       .  A
C1492      S1498   1.710       .  A
C1493      C1494   1.404       .  A
C1493      H1502   1.083       .  S
C1494      C1497   1.374       .  A
S1495      C1496   1.723       .  A
C1496      C1497   1.387       .  A
C1497      H1503   1.083       .  S
S1498      C1499   1.724       .  A
C1499      C1500   1.385       .  A
C1500      H1504   1.083       .  S
C1505      C1510   1.387       .  A
C1505      C1506   1.401       .  A
C1505      S1511   1.703       .  A
C1506      C1507   1.401       .  A
C1506      H1517   1.083       .  S
C1507      C1516   1.373       .  A
C1507      C1508   1.387       .  A
C1508      C1509   1.403       .  A
C1508      S1514   1.705       .  A
C1509      C1510   1.403       .  A
C1509      H1518   1.083       .  S
C1510      C1513   1.374       .  A
S1511      C1512   1.724       .  A
C1512      C1513   1.388       .  A
C1513      H1519   1.083       .  S
S1514      C1515   1.726       .  A
C1515      C1516   1.386       .  A
C1516      H1520   1.083       .  S
C1521      C1526   1.387       .  A
C1521      C1522   1.403       .  A
C1521      S1527   1.708       .  A
C1522      C1523   1.403       .  A
C1522      H1533   1.083       .  S
C1523      C1532   1.373       .  A
C1523      C1524   1.387       .  A
C1524      C1525   1.402       .  A
C1524      S1530   1.707       .  A
C1525      C1526   1.402       .  A
C1525      H1534   1.083       .  S
C1526      C1529   1.372       .  A
S1527      C1528   1.724       .  A
C1528      C1529   1.386       .  A
C1529      H1535   1.083       .  S
S1530      C1531   1.723       .  A
C1531      C1532   1.386       .  A
C1532      H1536   1.083       .  S
C1537      C1542   1.386       .  A
C1537      C1538   1.404   1_554  A
C1537      S1543   1.710       .  A
C1538      C1539   1.405       .  A
C1538      H1549   1.083       .  S
C1539      C1548   1.374       .  A
C1539      C1540   1.387   1_556  A
C1540      C1541   1.399       .  A
C1540      S1546   1.702   1_554  A
C1541      C1542   1.400       .  A
C1541      H1550   1.083       .  S
C1542      C1545   1.368       .  A
S1543      C1544   1.725       .  A
C1544      C1545   1.386       .  A
C1545      H1551   1.083       .  S
S1546      C1547   1.724       .  A
C1547      C1548   1.388       .  A
C1548      H1552   1.083       .  S
C1553      C1558   1.386       .  A
C1553      C1554   1.404       .  A
C1553      S1559   1.707       .  A
C1554      C1555   1.404       .  A
C1554      H1565   1.083       .  S
C1555      C1564   1.376       .  A
C1555      C1556   1.387       .  A
C1556      C1557   1.405       .  A
C1556      S1562   1.707       .  A
C1557      C1558   1.404       .  A
C1557      H1566   1.083       .  S
C1558      C1561   1.376       .  A
S1559      C1560   1.726       .  A
C1560      C1561   1.389       .  A
C1561      H1567   1.083       .  S
S1562      C1563   1.727       .  A
C1563      C1564   1.389       .  A
C1564      H1568   1.083       .  S
C1569      C1574   1.387       .  A
C1569      C1570   1.400       .  A
C1569      S1575   1.705       .  A
C1570      C1571   1.401       .  A
C1570      H1581   1.083       .  S
C1571      C1580   1.369       .  A
C1571      C1572   1.387       .  A
C1572      C1573   1.403       .  A
C1572      S1578   1.709       .  A
C1573      C1574   1.404       .  A
C1573      H1582   1.083       .  S
C1574      C1577   1.372       .  A
S1575      C1576   1.723       .  A
C1576      C1577   1.386       .  A
C1577      H1583   1.083       .  S
S1578      C1579   1.722       .  A
C1579      C1580   1.385       .  A
C1580      H1584   1.083       .  S
C1585      C1590   1.386   1_554  A
C1585      C1586   1.404       .  A
C1585      S1591   1.713   1_554  A
C1586      C1587   1.406       .  A
C1586      H1597   1.083       .  S
C1587      C1596   1.372       .  A
C1587      C1588   1.387       .  A
C1588      C1589   1.400   1_554  A
C1588      S1594   1.707       .  A
C1589      C1590   1.402       .  A
C1589      H1598   1.083       .  S
C1590      C1593   1.368       .  A
S1591      C1592   1.725       .  A
C1592      C1593   1.388       .  A
C1593      H1599   1.083       .  S
S1594      C1595   1.723       .  A
C1595      C1596   1.390       .  A
C1596      H1600   1.083       .  S
C1601      C1606   1.386       .  A
C1601      C1602   1.405       .  A
C1601      S1607   1.714       .  A
C1602      C1603   1.407       .  A
C1602      H1613   1.083       .  S
C1603      C1612   1.374       .  A
C1603      C1604   1.387       .  A
C1604      C1605   1.399       .  A
C1604      S1610   1.706       .  A
C1605      C1606   1.401       .  A
C1605      H1614   1.083       .  S
C1606      C1609   1.367       .  A
S1607      C1608   1.726       .  A
C1608      C1609   1.387       .  A
C1609      H1615   1.082       .  S
S1610      C1611   1.722       .  A
C1611      C1612   1.391       .  A
C1612      H1616   1.083       .  S
C1617      C1622   1.386       .  A
C1617      C1618   1.405       .  A
C1617      S1623   1.713       .  A
C1618      C1619   1.406       .  A
C1618      H1629   1.083       .  S
C1619      C1628   1.375       .  A
C1619      C1620   1.386       .  A
C1620      C1621   1.401       .  A
C1620      S1626   1.707       .  A
C1621      C1622   1.403       .  A
C1621      H1630   1.083       .  S
C1622      C1625   1.371       .  A
S1623      C1624   1.726       .  A
C1624      C1625   1.389       .  A
C1625      H1631   1.082       .  S
S1626      C1627   1.725       .  A
C1627      C1628   1.390       .  A
C1628      H1632   1.083       .  S
C1633      C1638   1.387       .  A
C1633      C1634   1.405       .  A
C1633      S1639   1.711       .  A
C1634      C1635   1.406       .  A
C1634      H1645   1.083       .  S
C1635      C1644   1.375       .  A
C1635      C1636   1.387       .  A
C1636      C1637   1.399       .  A
C1636      S1642   1.702       .  A
C1637      C1638   1.400       .  A
C1637      H1646   1.083       .  S
C1638      C1641   1.369       .  A
S1639      C1640   1.725       .  A
C1640      C1641   1.385       .  A
C1641      H1647   1.083       .  S
S1642      C1643   1.721       .  A
C1643      C1644   1.388       .  A
C1644      H1648   1.083       .  S
C1649      C1654   1.386       .  A
C1649      C1650   1.405       .  A
C1649      S1655   1.709       .  A
C1650      C1651   1.405       .  A
C1650      H1661   1.083       .  S
C1651      C1660   1.376       .  A
C1651      C1652   1.387       .  A
C1652      C1653   1.402       .  A
C1652      S1658   1.705       .  A
C1653      C1654   1.402       .  A
C1653      H1662   1.083       .  S
C1654      C1657   1.372       .  A
S1655      C1656   1.726       .  A
C1656      C1657   1.388       .  A
C1657      H1663   1.083       .  S
S1658      C1659   1.725       .  A
C1659      C1660   1.389       .  A
C1660      H1664   1.082       .  S
C1665      C1670   1.387       .  A
C1665      C1666   1.402       .  A
C1665      S1671   1.708   1_455  A
C1666      C1667   1.403       .  A
C1666      H1677   1.083       .  S
C1667      C1676   1.370       .  A
C1667      C1668   1.386       .  A
C1668      C1669   1.403       .  A
C1668      S1674   1.710       .  A
C1669      C1670   1.404       .  A
C1669      H1678   1.083       .  S
C1670      C1673   1.372       .  A
S1671      C1672   1.724   1_655  A
C1672      C1673   1.389       .  A
C1673      H1679   1.083       .  S
S1674      C1675   1.725       .  A
C1675      C1676   1.388       .  A
C1676      H1680   1.083       .  S
C1681      C1686   1.387       .  A
C1681      C1682   1.400       .  A
C1681      S1687   1.707       .  A
C1682      C1683   1.402       .  A
C1682      H1693   1.083       .  S
C1683      C1692   1.368       .  A
C1683      C1684   1.387       .  A
C1684      C1685   1.401       .  A
C1684      S1690   1.709       .  A
C1685      C1686   1.403       .  A
C1685      H1694   1.083       .  S
C1686      C1689   1.369       .  A
S1687      C1688   1.722       .  A
C1688      C1689   1.386       .  A
C1689      H1695   1.083       .  S
S1690      C1691   1.721       .  A
C1691      C1692   1.385       .  A
C1692      H1696   1.083       .  S
C1697      C1702   1.387       .  A
C1697      C1698   1.398       .  A
C1697      S1703   1.700       .  A
C1698      C1699   1.398       .  A
C1698      H1709   1.083       .  S
C1699      C1708   1.367       .  A
C1699      C1700   1.386       .  A
C1700      C1701   1.409       .  A
C1700      S1706   1.715       .  A
C1701      C1702   1.409       .  A
C1701      H1710   1.083       .  S
C1702      C1705   1.379       .  A
S1703      C1704   1.722       .  A
C1704      C1705   1.392       .  A
C1705      H1711   1.083       .  S
S1706      C1707   1.728       .  A
C1707      C1708   1.386       .  A
C1708      H1712   1.082       .  S
C1713      C1718   1.387       .  A
C1713      C1714   1.403       .  A
C1713      S1719   1.704       .  A
C1714      C1715   1.403       .  A
C1714      H1725   1.083       .  S
C1715      C1724   1.374       .  A
C1715      C1716   1.387       .  A
C1716      C1717   1.401       .  A
C1716      S1722   1.702       .  A
C1717      C1718   1.401       .  A
C1717      H1726   1.083       .  S
C1718      C1721   1.373       .  A
S1719      C1720   1.727       .  A
C1720      C1721   1.386       .  A
C1721      H1727   1.083       .  S
S1722      C1723   1.725       .  A
C1723      C1724   1.388       .  A
C1724      H1728   1.083       .  S
C1729      C1734   1.387       .  A
C1729      C1730   1.401       .  A
C1729      S1735   1.706       .  A
C1730      C1731   1.402       .  A
C1730      H1741   1.083       .  S
C1731      C1740   1.370       .  A
C1731      C1732   1.387       .  A
C1732      C1733   1.403       .  A
C1732      S1738   1.709       .  A
C1733      C1734   1.404       .  A
C1733      H1742   1.083       .  S
C1734      C1737   1.372       .  A
S1735      C1736   1.723       .  A
C1736      C1737   1.387       .  A
C1737      H1743   1.083       .  S
S1738      C1739   1.723       .  A
C1739      C1740   1.385       .  A
C1740      H1744   1.083       .  S
C1745      C1750   1.386       .  A
C1745      C1746   1.401       .  A
C1745      S1751   1.708       .  A
C1746      C1747   1.402       .  A
C1746      H1757   1.083       .  S
C1747      C1756   1.369       .  A
C1747      C1748   1.386       .  A
C1748      C1749   1.405       .  A
C1748      S1754   1.714       .  A
C1749      C1750   1.407       .  A
C1749      H1758   1.083       .  S
C1750      C1753   1.374       .  A
S1751      C1752   1.723       .  A
C1752      C1753   1.391       .  A
C1753      H1759   1.083       .  S
S1754      C1755   1.726       .  A
C1755      C1756   1.388       .  A
C1756      H1760   1.082       .  S
C1761      C1766   1.387       .  A
C1761      C1762   1.405       .  A
C1761      S1767   1.711       .  A
C1762      C1763   1.405       .  A
C1762      H1773   1.083       .  S
C1763      C1772   1.374       .  A
C1763      C1764   1.387       .  A
C1764      C1765   1.398       .  A
C1764      S1770   1.703       .  A
C1765      C1766   1.399       .  A
C1765      H1774   1.083       .  S
C1766      C1769   1.368       .  A
S1767      C1768   1.725       .  A
C1768      C1769   1.383       .  A
C1769      H1775   1.083       .  S
S1770      C1771   1.720       .  A
C1771      C1772   1.387       .  A
C1772      H1776   1.083       .  S
C1777      C1782   1.386       .  A
C1777      C1778   1.403       .  A
C1777      S1783   1.711       .  A
C1778      C1779   1.404       .  A
C1778      H1789   1.083       .  S
C1779      C1788   1.371       .  A
C1779      C1780   1.385       .  A
C1780      C1781   1.406       .  A
C1780      S1786   1.715       .  A
C1781      C1782   1.407       .  A
C1781      H1790   1.083       .  S
C1782      C1785   1.375       .  A
S1783      C1784   1.725       .  A
C1784      C1785   1.391       .  A
C1785      H1791   1.083       .  S
S1786      C1787   1.726       .  A
C1787      C1788   1.391       .  A
C1788      H1792   1.082       .  S
C1793      C1798   1.387   1_455  A
C1793      C1794   1.408       .  A
C1793      S1799   1.715       .  A
C1794      C1795   1.408       .  A
C1794      H1805   1.083       .  S
C1795      C1804   1.379       .  A
C1795      C1796   1.387       .  A
C1796      C1797   1.397   1_455  A
C1796      S1802   1.699       .  A
C1797      C1798   1.397       .  A
C1797      H1806   1.083       .  S
C1798      C1801   1.367       .  A
S1799      C1800   1.725   1_455  A
C1800      C1801   1.382       .  A
C1801      H1807   1.083       .  S
S1802      C1803   1.722       .  A
C1803      C1804   1.390       .  A
C1804      H1808   1.083       .  S
C1809      C1814   1.386       .  A
C1809      C1810   1.406       .  A
C1809      S1815   1.713       .  A
C1810      C1811   1.406       .  A
C1810      H1821   1.083       .  S
C1811      C1820   1.375       .  A
C1811      C1812   1.388       .  A
C1812      C1813   1.398       .  A
C1812      S1818   1.702       .  A
C1813      C1814   1.399       .  A
C1813      H1822   1.083   1_455  S
C1814      C1817   1.367   1_455  A
S1815      C1816   1.725   1_455  A
C1816      C1817   1.386       .  A
C1817      H1823   1.083       .  S
S1818      C1819   1.720       .  A
C1819      C1820   1.387       .  A
C1820      H1824   1.083       .  S
C1825      C1830   1.387       .  A
C1825      C1826   1.404       .  A
C1825      S1831   1.712       .  A
C1826      C1827   1.405       .  A
C1826      H1837   1.083       .  S
C1827      C1836   1.373       .  A
C1827      C1828   1.387       .  A
C1828      C1829   1.400       .  A
C1828      S1834   1.707       .  A
C1829      C1830   1.402       .  A
C1829      H1838   1.083       .  S
C1830      C1833   1.369       .  A
S1831      C1832   1.724       .  A
C1832      C1833   1.386       .  A
C1833      H1839   1.083       .  S
S1834      C1835   1.722       .  A
C1835      C1836   1.388       .  A
C1836      H1840   1.083       .  S
C1841      C1846   1.387       .  A
C1841      C1842   1.405       .  A
C1841      S1847   1.712       .  A
C1842      C1843   1.406       .  A
C1842      H1853   1.083       .  S
C1843      C1852   1.375       .  A
C1843      C1844   1.387       .  A
C1844      C1845   1.400       .  A
C1844      S1850   1.704       .  A
C1845      C1846   1.401       .  A
C1845      H1854   1.083       .  S
C1846      C1849   1.369       .  A
S1847      C1848   1.725       .  A
C1848      C1849   1.386       .  A
C1849      H1855   1.083       .  S
S1850      C1851   1.722       .  A
C1851      C1852   1.387       .  A
C1852      H1856   1.083       .  S
C1857      C1862   1.386       .  A
C1857      C1858   1.407       .  A
C1857      S1863   1.713       .  A
C1858      C1859   1.407       .  A
C1858      H1869   1.082       .  S
C1859      C1868   1.378       .  A
C1859      C1860   1.387       .  A
C1860      C1861   1.399       .  A
C1860      S1866   1.701       .  A
C1861      C1862   1.399       .  A
C1861      H1870   1.083       .  S
C1862      C1865   1.368       .  A
S1863      C1864   1.727       .  A
C1864      C1865   1.386       .  A
C1865      H1871   1.083       .  S
S1866      C1867   1.723       .  A
C1867      C1868   1.390       .  A
C1868      H1872   1.082       .  S
C1873      C1878   1.387       .  A
C1873      C1874   1.401       .  A
C1873      S1879   1.704       .  A
C1874      C1875   1.401       .  A
C1874      H1885   1.083       .  S
C1875      C1884   1.372       .  A
C1875      C1876   1.387       .  A
C1876      C1877   1.405       .  A
C1876      S1882   1.708       .  A
C1877      C1878   1.404       .  A
C1877      H1886   1.083       .  S
C1878      C1881   1.375       .  A
S1879      C1880   1.724       .  A
C1880      C1881   1.389       .  A
C1881      H1887   1.083       .  S
S1882      C1883   1.727       .  A
C1883      C1884   1.387       .  A
C1884      H1888   1.083       .  S
C1889      C1894   1.387       .  A
C1889      C1890   1.404       .  A
C1889      S1895   1.711       .  A
C1890      C1891   1.405       .  A
C1890      H1901   1.083       .  S
C1891      C1900   1.373       .  A
C1891      C1892   1.387       .  A
C1892      C1893   1.401       .  A
C1892      S1898   1.707       .  A
C1893      C1894   1.402       .  A
C1893      H1902   1.083       .  S
C1894      C1897   1.371       .  A
S1895      C1896   1.723       .  A
C1896      C1897   1.386       .  A
C1897      H1903   1.083       .  S
S1898      C1899   1.723       .  A
C1899      C1900   1.389       .  A
C1900      H1904   1.083       .  S
C1905      C1910   1.386       .  A
C1905      C1906   1.402       .  A
C1905      S1911   1.712       .  A
C1906      C1907   1.404       .  A
C1906      H1917   1.083       .  S
C1907      C1916   1.369       .  A
C1907      C1908   1.386       .  A
C1908      C1909   1.403       .  A
C1908      S1914   1.714       .  A
C1909      C1910   1.405       .  A
C1909      H1918   1.083       .  S
C1910      C1913   1.371       .  A
S1911      C1912   1.723       .  A
C1912      C1913   1.388       .  A
C1913      H1919   1.083       .  S
S1914      C1915   1.724       .  A
C1915      C1916   1.390       .  A
C1916      H1920   1.083       .  S
C1921      C1926   1.387       .  A
C1921      C1922   1.400       .  A
C1921      S1927   1.705       .  A
C1922      C1923   1.401       .  A
C1922      H1933   1.083       .  S
C1923      C1932   1.369       .  A
C1923      C1924   1.385       .  A
C1924      C1925   1.408       .  A
C1924      S1930   1.716       .  A
C1925      C1926   1.409       .  A
C1925      H1934   1.083       .  S
C1926      C1929   1.378       .  A
S1927      C1928   1.723       .  A
C1928      C1929   1.392       .  A
C1929      H1935   1.083       .  S
S1930      C1931   1.728       .  A
C1931      C1932   1.388       .  A
C1932      H1936   1.082       .  S
C1937      C1942   1.387       .  A
C1937      C1938   1.404       .  A
C1937      S1943   1.709       .  A
C1938      C1939   1.404       .  A
C1938      H1949   1.083       .  S
C1939      C1948   1.374       .  A
C1939      C1940   1.387       .  A
C1940      C1941   1.401       .  A
C1940      S1946   1.705       .  A
C1941      C1942   1.401       .  A
C1941      H1950   1.083       .  S
C1942      C1945   1.370       .  A
S1943      C1944   1.724       .  A
C1944      C1945   1.386       .  A
C1945      H1951   1.083       .  S
S1946      C1947   1.721       .  A
C1947      C1948   1.386       .  A
C1948      H1952   1.083       .  S
C1953      C1958   1.387       .  A
C1953      C1954   1.401       .  A
C1953      S1959   1.706       .  A
C1954      C1955   1.402       .  A
C1954      H1965   1.083       .  S
C1955      C1964   1.372       .  A
C1955      C1956   1.386       .  A
C1956      C1957   1.407       .  A
C1956      S1962   1.714       .  A
C1957      C1958   1.408       .  A
C1957      H1966   1.083       .  S
C1958      C1961   1.377       .  A
S1959      C1960   1.724       .  A
C1960      C1961   1.391       .  A
C1961      H1967   1.083       .  S
S1962      C1963   1.727       .  A
C1963      C1964   1.389       .  A
C1964      H1968   1.082       .  S
C1969      C1974   1.386       .  A
C1969      C1970   1.406       .  A
C1969      S1975   1.715       .  A
C1970      C1971   1.407       .  A
C1970      H1981   1.083       .  S
C1971      C1980   1.375       .  A
C1971      C1972   1.387       .  A
C1972      C1973   1.398       .  A
C1972      S1978   1.703       .  A
C1973      C1974   1.400       .  A
C1973      H1982   1.083       .  S
C1974      C1977   1.367       .  A
S1975      C1976   1.725       .  A
C1976      C1977   1.385       .  A
C1977      H1983   1.083       .  S
S1978      C1979   1.722       .  A
C1979      C1980   1.390       .  A
C1980      H1984   1.083       .  S
C1985      C1990   1.387       .  A
C1985      C1986   1.400       .  A
C1985      S1991   1.707       .  A
C1986      C1987   1.402       .  A
C1986      H1997   1.083       .  S
C1987      C1996   1.368       .  A
C1987      C1988   1.386       .  A
C1988      C1989   1.405       .  A
C1988      S1994   1.714       .  A
C1989      C1990   1.407       .  A
C1989      H1998   1.083       .  S
C1990      C1993   1.373       .  A
S1991      C1992   1.723       .  A
C1992      C1993   1.391       .  A
C1993      H1999   1.083       .  S
S1994      C1995   1.726       .  A
C1995      C1996   1.387       .  A
C1996      H2000   1.083       .  S
C2001      C2006   1.386       .  A
C2001      C2002   1.404       .  A
C2001      S2007   1.712       .  A
C2002      C2003   1.406       .  A
C2002      H2013   1.083       .  S
C2003      C2012   1.372       .  A
C2003      C2004   1.387       .  A
C2004      C2005   1.399       .  A
C2004      S2010   1.707       .  A
C2005      C2006   1.401       .  A
C2005      H2014   1.083       .  S
C2006      C2009   1.367       .  A
S2007      C2008   1.725       .  A
C2008      C2009   1.387       .  A
C2009      H2015   1.083       .  S
S2010      C2011   1.722       .  A
C2011      C2012   1.390       .  A
C2012      H2016   1.083       .  S
C2017      C2022   1.387       .  A
C2017      C2018   1.401       .  A
C2017      S2023   1.704       .  A
C2018      C2019   1.401       .  A
C2018      H2029   1.083       .  S
C2019      C2028   1.371       .  A
C2019      C2020   1.387       .  A
C2020      C2021   1.407       .  A
C2020      S2026   1.713       .  A
C2021      C2022   1.408       .  A
C2021      H2030   1.083       .  S
C2022      C2025   1.378       .  A
S2023      C2024   1.722       .  A
C2024      C2025   1.390       .  A
C2025      H2031   1.083       .  S
S2026      C2027   1.725       .  A
C2027      C2028   1.385       .  A
C2028      H2032   1.083       .  S
C2033      C2038   1.386       .  A
C2033      C2034   1.408       .  A
C2033      S2039   1.715       .  A
C2034      C2035   1.408       .  A
C2034      H2045   1.083       .  S
C2035      C2044   1.378       .  A
C2035      C2036   1.387       .  A
C2036      C2037   1.401       .  A
C2036      S2042   1.707       .  A
C2037      C2038   1.402       .  A
C2037      H2046   1.083       .  S
C2038      C2041   1.371       .  A
S2039      C2040   1.726       .  A
C2040      C2041   1.387       .  A
C2041      H2047   1.083       .  S
S2042      C2043   1.722       .  A
C2043      C2044   1.389       .  A
C2044      H2048   1.083       .  S
C2049      C2054   1.387       .  A
C2049      C2050   1.401       .  A
C2049      S2055   1.707       .  A
C2050      C2051   1.402       .  A
C2050      H2061   1.083       .  S
C2051      C2060   1.370       .  A
C2051      C2052   1.387       .  A
C2052      C2053   1.404       .  A
C2052      S2058   1.711       .  A
C2053      C2054   1.405       .  A
C2053      H2062   1.083       .  S
C2054      C2057   1.374       .  A
S2055      C2056   1.722       .  A
C2056      C2057   1.387       .  A
C2057      H2063   1.083       .  S
S2058      C2059   1.725       .  A
C2059      C2060   1.388       .  A
C2060      H2064   1.083       .  S
C2065      C2070   1.386       .  A
C2065      C2066   1.401       .  A
C2065      S2071   1.705       .  A
C2066      C2067   1.401       .  A
C2066      H2077   1.083       .  S
C2067      C2076   1.371       .  A
C2067      C2068   1.385       .  A
C2068      C2069   1.409       .  A
C2068      S2074   1.717       .  A
C2069      C2070   1.410       .  A
C2069      H2078   1.083       .  S
C2070      C2073   1.380       .  A
S2071      C2072   1.724       .  A
C2072      C2073   1.393       .  A
C2073      H2079   1.083       .  S
S2074      C2075   1.729       .  A
C2075      C2076   1.389       .  A
C2076      H2080   1.082       .  S
C2081      C2086   1.387       .  A
C2081      C2082   1.403       .  A
C2081      S2087   1.710       .  A
C2082      C2083   1.404       .  A
C2082      H2093   1.083       .  S
C2083      C2092   1.372       .  A
C2083      C2084   1.387       .  A
C2084      C2085   1.403       .  A
C2084      S2090   1.711       .  A
C2085      C2086   1.404       .  A
C2085      H2094   1.083       .  S
C2086      C2089   1.372       .  A
S2087      C2088   1.724       .  A
C2088      C2089   1.388       .  A
C2089      H2095   1.083       .  S
S2090      C2091   1.722       .  A
C2091      C2092   1.388       .  A
C2092      H2096   1.083       .  S
C2097      C2102   1.386       .  A
C2097      C2098   1.403       .  A
C2097      S2103   1.713       .  A
C2098      C2099   1.405       .  A
C2098      H2109   1.083       .  S
C2099      C2108   1.371       .  A
C2099      C2100   1.386       .  A
C2100      C2101   1.403       .  A
C2100      S2106   1.712       .  A
C2101      C2102   1.405       .  A
C2101      H2110   1.083       .  S
C2102      C2105   1.371       .  A
S2103      C2104   1.724       .  A
C2104      C2105   1.390       .  A
C2105      H2111   1.083       .  S
S2106      C2107   1.724       .  A
C2107      C2108   1.390       .  A
C2108      H2112   1.083       .  S
C2113      C2118   1.386       .  A
C2113      C2114   1.406       .  A
C2113      S2119   1.715       .  A
C2114      C2115   1.407       .  A
C2114      H2125   1.083       .  S
C2115      C2124   1.375       .  A
C2115      C2116   1.387   1_455  A
C2116      C2117   1.401   1_655  A
C2116      S2122   1.707       .  A
C2117      C2118   1.402       .  A
C2117      H2126   1.083   1_455  S
C2118      C2121   1.370       .  A
S2119      C2120   1.724       .  A
C2120      C2121   1.387       .  A
C2121      H2127   1.083       .  S
S2122      C2123   1.723       .  A
C2123      C2124   1.388   1_655  A
C2124      H2128   1.083       .  S
C2129      C2134   1.386       .  A
C2129      C2130   1.406       .  A
C2129      S2135   1.713       .  A
C2130      C2131   1.406       .  A
C2130      H2141   1.083       .  S
C2131      C2140   1.376       .  A
C2131      C2132   1.387       .  A
C2132      C2133   1.401       .  A
C2132      S2138   1.707       .  A
C2133      C2134   1.402       .  A
C2133      H2142   1.083   1_455  S
C2134      C2137   1.371   1_455  A
S2135      C2136   1.725   1_455  A
C2136      C2137   1.387       .  A
C2137      H2143   1.083       .  S
S2138      C2139   1.722       .  A
C2139      C2140   1.388       .  A
C2140      H2144   1.083       .  S
C2145      C2150   1.386       .  A
C2145      C2146   1.400       .  A
C2145      S2151   1.705       .  A
C2146      C2147   1.401       .  A
C2146      H2157   1.083       .  S
C2147      C2156   1.370       .  A
C2147      C2148   1.386       .  A
C2148      C2149   1.408       .  A
C2148      S2154   1.715       .  A
C2149      C2150   1.409       .  A
C2149      H2158   1.083       .  S
C2150      C2153   1.378       .  A
S2151      C2152   1.724       .  A
C2152      C2153   1.392       .  A
C2153      H2159   1.083       .  S
S2154      C2155   1.727       .  A
C2155      C2156   1.388       .  A
C2156      H2160   1.082       .  S
C2161      C2166   1.387       .  A
C2161      C2162   1.405       .  A
C2161      S2167   1.709       .  A
C2162      C2163   1.405       .  A
C2162      H2173   1.083       .  S
C2163      C2172   1.376       .  A
C2163      C2164   1.387       .  A
C2164      C2165   1.403       .  A
C2164      S2170   1.706       .  A
C2165      C2166   1.403       .  A
C2165      H2174   1.083       .  S
C2166      C2169   1.374       .  A
S2167      C2168   1.725       .  A
C2168      C2169   1.386       .  A
C2169      H2175   1.083       .  S
S2170      C2171   1.723       .  A
C2171      C2172   1.388       .  A
C2172      H2176   1.083       .  S
C2177      C2182   1.386       .  A
C2177      C2178   1.401       .  A
C2177      S2183   1.706       .  A
C2178      C2179   1.402       .  A
C2178      H2189   1.083       .  S
C2179      C2188   1.372       .  A
C2179      C2180   1.385       .  A
C2180      C2181   1.409       .  A
C2180      S2186   1.716       .  A
C2181      C2182   1.410       .  A
C2181      H2190   1.083       .  S
C2182      C2185   1.380       .  A
S2183      C2184   1.724       .  A
C2184      C2185   1.393       .  A
C2185      H2191   1.083       .  S
S2186      C2187   1.729       .  A
C2187      C2188   1.389       .  A
C2188      H2192   1.082       .  S
C2193      C2198   1.387       .  A
C2193      C2194   1.397       .  A
C2193      S2199   1.704       .  A
C2194      C2195   1.399       .  A
C2194      H2205   1.083       .  S
C2195      C2204   1.365       .  A
C2195      C2196   1.386       .  A
C2196      C2197   1.404       .  A
C2196      S2202   1.714       .  A
C2197      C2198   1.406       .  A
C2197      H2206   1.083       .  S
C2198      C2201   1.372       .  A
S2199      C2200   1.719       .  A
C2200      C2201   1.387       .  A
C2201      H2207   1.083       .  S
S2202      C2203   1.724       .  A
C2203      C2204   1.384       .  A
C2204      H2208   1.083       .  S
C2209      C2214   1.387       .  A
C2209      C2210   1.398       .  A
C2209      S2215   1.700       .  A
C2210      C2211   1.399       .  A
C2210      H2221   1.083       .  S
C2211      C2220   1.367       .  A
C2211      C2212   1.385       .  A
C2212      C2213   1.408       .  A
C2212      S2218   1.715       .  A
C2213      C2214   1.408       .  A
C2213      H2222   1.083       .  S
C2214      C2217   1.378       .  A
S2215      C2216   1.723       .  A
C2216      C2217   1.390       .  A
C2217      H2223   1.083       .  S
S2218      C2219   1.727       .  A
C2219      C2220   1.387       .  A
C2220      H2224   1.082       .  S
C2225      C2230   1.387       .  A
C2225      C2226   1.402       .  A
C2225      S2231   1.702       .  A
C2226      C2227   1.401       .  A
C2226      H2237   1.083       .  S
C2227      C2236   1.375       .  A
C2227      C2228   1.387       .  A
C2228      C2229   1.405       .  A
C2228      S2234   1.706       .  A
C2229      C2230   1.404       .  A
C2229      H2238   1.083       .  S
C2230      C2233   1.377       .  A
S2231      C2232   1.726       .  A
C2232      C2233   1.389       .  A
C2233      H2239   1.083       .  S
S2234      C2235   1.727       .  A
C2235      C2236   1.387       .  A
C2236      H2240   1.083       .  S
