geometry optimzed in LAMMPS
_audit_creation_date              2020-11-30 
_audit_creation_method            'lammps2cif' 
_symmetry_space_group_name_H-M    'P1' 
_symmetry_Int_Tables_number       1 
_symmetry_cell_setting            triclinic 
loop_ 
_symmetry_equiv_pos_as_xyz 
  x,y,z 
_cell_length_a                    28.178315466173494 
_cell_length_b                    28.15988783450272 
_cell_length_c                    32.13578112553383 
_cell_angle_alpha                 90.86152080596003 
_cell_angle_beta                  91.94087519252287 
_cell_angle_gamma                 90.09299175303812 
loop_ 
_atom_site_label 
_atom_site_type_symbol 
_atom_site_fract_x 
_atom_site_fract_y 
_atom_site_fract_z 
_atom_site_charge 
C1          C  0.24461265  0.82980571  0.33267968     0.42210
N2          N  0.28562483  0.76610468  0.32509326     0.01100
C3          C  0.21962785  0.53195579  0.34980591    -0.06780
H4          H  0.15648227  0.64624386  0.46176293     0.06590
C5          C  0.34476125  0.66920577  0.49872379    -0.07130
Co6        Co  0.22607581  0.67636108  0.32017584     0.74180
N7          N  0.19607349  0.65778902  0.40643713    -0.26310
Co8        Co  0.25410449  0.61121760  0.40811417     0.74070
C9          C  0.30294792  0.66036137  0.52385094     0.42310
N10         N  0.38716915  0.72180741  0.40539560     0.00710
N11         N  0.28580045  0.64462653  0.45948341     0.00820
N12         N  0.20092065  0.57060632  0.29012218    -0.47150
H13         H  0.17434674  0.78717009  0.32939597     0.06580
N14         N  0.18636964  0.68211390  0.37256195     0.01110
N15         N  0.31101953  0.56392531  0.40912459     0.00850
C16         C  0.35676622  0.50540048  0.42586988     0.42450
N17         N  0.37825641  0.74785786  0.37237416    -0.25760
C18         C  0.25150789  0.65890593  0.22864666    -0.06680
N19         N  0.28907142  0.81276151  0.32979527    -0.46870
N20         N  0.31087698  0.51958638  0.42240535    -0.47090
C21         C  0.29185219  0.66998699  0.20316895     0.42220
N22         N  0.21537923  0.60090642  0.32040193     0.01090
N23         N  0.39509893  0.66943654  0.31687877    -0.25780
N24         N  0.24123681  0.75050800  0.32407016    -0.26280
N25         N  0.40646581  0.64214583  0.34870537     0.00730
H26         H  0.41653261  0.67102936  0.25327101     0.06620
H27         H  0.42299652  0.55196591  0.41715326     0.06660
N28         N  0.22629095  0.57841520  0.35524468    -0.26330
N29         N  0.33076380  0.65808600  0.45933193    -0.25940
N30         N  0.30865254  0.68963509  0.26677694     0.01100
C31         C  0.12640752  0.69588442  0.41043815     0.42490
C32         C  0.40718321  0.78586264  0.37463104    -0.07190
N33         N  0.35432390  0.57997905  0.40504716    -0.25940
H34         H  0.38060100  0.67866119  0.50872481     0.06640
N35         N  0.14545153  0.70468507  0.37358649    -0.47160
H36         H  0.41278926  0.80990281  0.34932897     0.06630
C37         C  0.44805106  0.61642358  0.29839992     0.42330
C38         C  0.21261614  0.78844740  0.32831111    -0.06690
Co39       Co  0.34200188  0.71923120  0.31999177     0.73820
N40         N  0.42141752  0.73969644  0.42998817    -0.46880
C41         C  0.20309022  0.52647872  0.30709849     0.42600
N42         N  0.32569109  0.68934775  0.22888937    -0.46870
Co43       Co  0.37014179  0.65058203  0.40480163     0.73890
C44         C  0.38526980  0.54568280  0.41314748    -0.07200
C45         C  0.16010750  0.66418616  0.43251637    -0.06760
N46         N  0.26531231  0.67226144  0.26734013    -0.26290
N47         N  0.26840703  0.64487586  0.49705705    -0.47050
H48         H  0.22679298  0.50507640  0.37285493     0.06600
C49         C  0.41980523  0.65623365  0.28404656    -0.07170
Cl50       Cl  0.29788602  0.66475865  0.36349417    -0.50170
C51         C  0.43624216  0.78033212  0.41309317     0.42360
H52         H  0.21662213  0.64575892  0.21933242     0.06570
N53         N  0.43781791  0.60899348  0.33871501    -0.46880
C54         C  0.29103729  0.66875560  0.02294427     0.42210
N55         N  0.27465396  0.64317395  0.96083254     0.01100
C56         C  0.42249265  0.64895439  0.79246153    -0.06780
H57         H  0.40487311  0.80062685  0.84761930     0.06590
C58         C  0.20844119  0.77963998  0.82207736    -0.07130
Co59       Co  0.36102519  0.64404815  0.90841127     0.74180
N60         N  0.37006574  0.73964123  0.87221517    -0.26310
Co61       Co  0.33702497  0.70789572  0.82001722     0.74070
C62         C  0.24158584  0.82040249  0.82554454     0.42310
N63         N  0.17748423  0.67530626  0.86871741     0.00710
N64         N  0.28085091  0.75518194  0.82042609     0.00820
N65         N  0.43690425  0.60415692  0.84948110    -0.47150
H66         H  0.36847663  0.68511548  0.00677343     0.06580
N67         N  0.37810713  0.71517483  0.90631224     0.01110
N68         N  0.30668749  0.67492506  0.76755018     0.00850
C69         C  0.29445617  0.65098727  0.70424600     0.42450
N70         N  0.18669785  0.65359852  0.90416641    -0.25760
C71         C  0.37307056  0.53586875  0.91809923    -0.06680
N72         N  0.25647228  0.64919514  0.99798527    -0.46870
N73         N  0.32650819  0.67153153  0.73092183    -0.47090
C74         C  0.34160773  0.49615572  0.92633877     0.42220
N75         N  0.40057543  0.63326809  0.85477467     0.01090
N76         N  0.21770356  0.57120041  0.85755823    -0.25780
N77         N  0.31966952  0.65618457  0.96017591    -0.26280
N78         N  0.20908234  0.59180563  0.82136164     0.00730
H79         H  0.21393386  0.49907471  0.87842490     0.06620
H80         H  0.21748533  0.62882900  0.71795538     0.06660
N81         N  0.39132179  0.65913771  0.82158593    -0.26330
N82         N  0.23615045  0.74069303  0.81922177    -0.25940
N83         N  0.29997700  0.55855629  0.91420104     0.01100
C84         C  0.42699476  0.77379552  0.91259733     0.42490
C85         C  0.14982678  0.66052548  0.92902323    -0.07190
N86         N  0.26290671  0.65857623  0.76680073    -0.25940
H87         H  0.17013175  0.77931868  0.82319394     0.06640
N88         N  0.41166633  0.73423547  0.93086223    -0.47160
H89         H  0.14535732  0.64398866  0.95880826     0.06630
C90         C  0.19495147  0.51737713  0.81088524     0.42330
C91         C  0.33299414  0.67339209  0.99776401    -0.06690
Co92       Co  0.24407959  0.60670680  0.90990348     0.73820
N93         N  0.13545760  0.69626787  0.86737758    -0.46880
C94         C  0.45272151  0.61287161  0.81098003     0.42600
N95         N  0.29684361  0.51324714  0.92431870    -0.46870
Co96       Co  0.22036348  0.66663982  0.81800537     0.73890
C97         C  0.25189907  0.64239743  0.72821851    -0.07200
C98         C  0.39857573  0.77790566  0.87371739    -0.06760
N99         N  0.34422804  0.57280414  0.91142466    -0.26290
N100        N  0.28540895  0.80174755  0.82395133    -0.47050
H101        H  0.42347751  0.66456853  0.76196944     0.06600
C102        C  0.20945089  0.52476009  0.85393335    -0.07170
Cl103      Cl  0.29053971  0.65644639  0.86417852    -0.50170
C104        C  0.11568212  0.68852557  0.90421100     0.42360
H105        H  0.41135010  0.53782535  0.92151479     0.06570
N106        N  0.19476250  0.56037839  0.79203025    -0.46880
C107        C  0.92524402  0.74418548  0.95119096     0.42210
N108        N  0.87020880  0.77197168  0.98929035     0.01100
C109        C  0.64557975  0.85658954  0.94503969    -0.06780
H110        H  0.76438408  0.92145242  0.84791686     0.06590
C111        C  0.85832454  0.98988650  0.97526269    -0.07130
Co112      Co  0.77439284  0.78268700  0.94714784     0.74180
N113        N  0.77286970  0.86916416  0.89548377    -0.26310
Co114      Co  0.74415203  0.90174249  0.94705691     0.74070
C115        C  0.85031193  0.00092980  0.93075853     0.42310
N116        N  0.88059950  0.89872851  0.04283182     0.00710
N117        N  0.79793986  0.95098776  0.94973440     0.00820
N118        N  0.66308072  0.77805546  0.94293146    -0.47150
H119        H  0.87265069  0.73776823  0.89409672     0.06580
N120        N  0.78514131  0.82406657  0.89496536     0.01110
N121        N  0.71510777  0.93489224  0.99828020     0.00850
C122        C  0.67426326  0.98348482  0.03484132     0.42450
N123        N  0.89110249  0.85337922  0.04571215    -0.25760
C124        C  0.73659566  0.70295882  0.00241656    -0.06680
N125        N  0.91541966  0.76037899  0.98934003    -0.46870
N126        N  0.67577455  0.96049421  0.99769275    -0.47090
C127        C  0.74727679  0.68589780  0.04423335     0.42220
N128        N  0.70228283  0.80448700  0.94481373     0.01090
N129        N  0.80634360  0.83376088  0.09012811    -0.25780
N130        N  0.84779973  0.76480677  0.95295186    -0.26280
N131        N  0.79680582  0.87962214  0.09043069     0.00730
H132        H  0.80752822  0.78062695  0.13742560     0.06620
H133        H  0.73208597  0.98571161  0.08684708     0.06660
N134        N  0.69241046  0.85033533  0.94581939    -0.26330
N135        N  0.82427172  0.95838321  0.98385666    -0.25940
N136        N  0.78655003  0.74968585  0.03490856     0.01100
C137        C  0.79045056  0.84618466  0.83141458     0.42490
C138        C  0.93696119  0.84947221  0.05766082    -0.07190
N139        N  0.74067623  0.94130640  0.03289456    -0.25940
H140        H  0.88516200  0.00199331  0.99760959     0.06640
N141        N  0.79531775  0.80868278  0.85710023    -0.47160
H142        H  0.95447691  0.81688372  0.06643465     0.06630
C143        C  0.78334808  0.85668650  0.15239269     0.42330
C144        C  0.87991315  0.74702489  0.92645598    -0.06690
Co145      Co  0.83855219  0.80155924  0.04030275     0.73820
N146        N  0.91714406  0.92664231  0.05245941    -0.46880
C147        C  0.62620683  0.80902160  0.94396649     0.42600
N148        N  0.77934899  0.71595510  0.06223050    -0.46870
Co149      Co  0.81073337  0.92038877  0.03798127     0.73890
C150        C  0.71728343  0.97014058  0.05829671    -0.07200
C151        C  0.77567607  0.88635560  0.85709649    -0.06760
N152        N  0.76278226  0.74230747  0.99936375    -0.26290
N153        N  0.81213115  0.97531626  0.91777856    -0.47050
H154        H  0.62757252  0.89045134  0.94432476     0.06600
C155        C  0.79868350  0.81619055  0.12766270    -0.07170
Cl156      Cl  0.79193553  0.85152440  0.99311379    -0.50170
C157        C  0.95454728  0.89828410  0.06121183     0.42360
H158        H  0.71599180  0.68615536  0.97729159     0.06570
N159        N  0.78419088  0.89515419  0.12761926    -0.46880
C160        C  0.92955847  0.73256955  0.44599922     0.42210
N161        N  0.87586370  0.76060572  0.48473142     0.01100
C162        C  0.65811759  0.86241255  0.44212905    -0.06780
H163        H  0.78529924  0.92950231  0.35062912     0.06590
C164        C  0.88098445  0.98157133  0.47782975    -0.07130
Co165      Co  0.78334075  0.78255714  0.44059204     0.74180
N166        N  0.78806404  0.87292400  0.39485605    -0.26310
Co167      Co  0.76001323  0.90316247  0.44765249     0.74070
C168        C  0.86992265  0.99844263  0.43543723     0.42310
N169        N  0.89566839  0.88220091  0.54300262     0.00710
N170        N  0.81680173  0.94892595  0.45244234     0.00820
N171        N  0.67284831  0.78369905  0.43399233    -0.47150
H172        H  0.88058520  0.73817015  0.38699287     0.06580
N173        N  0.79827682  0.82742854  0.39181914     0.01110
N174        N  0.73353704  0.93511083  0.50060630     0.00850
C175        C  0.69903905  0.98603914  0.53989542     0.42450
N176        N  0.90106511  0.83595703  0.54620767    -0.25760
C177        C  0.73988133  0.69930523  0.48715016    -0.06680
N178        N  0.92004224  0.74528374  0.48516822    -0.46870
N179        N  0.69710488  0.96465973  0.50189090    -0.47090
C180        C  0.74658776  0.67772661  0.52770473     0.42220
N181        N  0.71289015  0.80851124  0.43840049     0.01090
N182        N  0.81375971  0.82182882  0.58706340    -0.25780
N183        N  0.85487627  0.75963217  0.44725179    -0.26280
N184        N  0.80909208  0.86844309  0.58847179     0.00730
H185        H  0.80839580  0.76762562  0.63288364     0.06620
H186        H  0.75810067  0.98064637  0.59032732     0.06660
N187        N  0.70490632  0.85454651  0.44297181    -0.26330
N188        N  0.84540560  0.95113003  0.48579437    -0.25940
N189        N  0.78848168  0.74138485  0.52614953     0.01100
C190        C  0.80899388  0.85480691  0.33079388     0.42490
C191        C  0.94326645  0.82745663  0.56518955    -0.07190
N192        N  0.76063617  0.93790126  0.53465360    -0.25940
H193        H  0.91021797  0.99108949  0.49898038     0.06640
N194        N  0.80939182  0.81469166  0.35349120    -0.47160
H195        H  0.95478882  0.79332928  0.57663314     0.06630
C196        C  0.79210351  0.84582365  0.65003079     0.42330
C197        C  0.88668077  0.74287215  0.42018945    -0.06690
Co198      Co  0.84443854  0.78918847  0.53641373     0.73820
N199        N  0.93211290  0.90606394  0.55954503    -0.46880
C200        C  0.63711615  0.81564559  0.43635911     0.42600
N201        N  0.77788175  0.70515775  0.55007546    -0.46870
Co202      Co  0.82827302  0.91048658  0.53810608     0.73890
C203        C  0.74111302  0.96782301  0.56162397    -0.07200
C204        C  0.79420468  0.89321397  0.35809534    -0.06760
N205        N  0.76718066  0.73821420  0.48902163    -0.26290
N206        N  0.83014220  0.97618876  0.42198138    -0.47050
H207        H  0.64111362  0.89671330  0.44423895     0.06600
C208        C  0.80366121  0.80428246  0.62422766    -0.07170
Cl209      Cl  0.80389474  0.84613922  0.49073688    -0.50170
C210        C  0.96368134  0.87423327  0.57461651     0.42360
H211        H  0.72068338  0.68593343  0.45972662     0.06570
N212        N  0.79641705  0.88412136  0.62551881    -0.46880
C213        C  0.54417018  0.49998578  0.17786710     0.42210
N214        N  0.59698635  0.45066101  0.15770591     0.01100
C215        C  0.59279288  0.30844798  0.98014386    -0.06780
H216        H  0.44087482  0.30708493  0.04281488     0.06590
C217        C  0.52337058  0.24585600  0.18466512    -0.07130
Co218      Co  0.58183026  0.41594013  0.06984105     0.74180
N219        N  0.50296438  0.34619925  0.06439309    -0.26310
Co220      Co  0.55703467  0.29626049  0.06870795     0.74070
C221        C  0.47762746  0.23936727  0.16180744     0.42310
N222        N  0.61456347  0.32653402  0.21198508     0.00710
N223        N  0.52833493  0.26742487  0.12079569     0.00820
N224        N  0.60668844  0.38759563  0.97957296    -0.47150
H225        H  0.50670618  0.49736791  0.11217706     0.06580
N226        N  0.51239121  0.39193001  0.06687053     0.01110
N227        N  0.61069693  0.24637539  0.07278462     0.00850
C228        C  0.64809672  0.18106062  0.06398674     0.42450
N229        N  0.62595840  0.37186102  0.21136546    -0.25760
C230        C  0.67102966  0.47089426  0.04775627    -0.06680
N231        N  0.58350986  0.47616632  0.18991117    -0.46870
N232        N  0.61630907  0.21077359  0.04610630    -0.47090
C233        C  0.71262224  0.48914950  0.07105346     0.42220
N234        N  0.59504826  0.37342199  0.01708028     0.01090
N235        N  0.70598661  0.35299371  0.15923741    -0.25780
N236        N  0.56909620  0.45569639  0.12431876    -0.26280
N237        N  0.69670250  0.30703261  0.16064934     0.00730
H238        H  0.77061995  0.39384812  0.16138735     0.06620
H239        H  0.68153747  0.18527762  0.13017102     0.06660
N240        N  0.58618445  0.32742236  0.01778240    -0.26330
N241        N  0.55282816  0.26325203  0.15638289    -0.25940
N242        N  0.67833166  0.43584906  0.10687377     0.01100
C243        C  0.43887785  0.38867458  0.04651476     0.42490
C244        C  0.62065232  0.39084577  0.24934716    -0.07190
N245        N  0.63575818  0.24103916  0.10777179    -0.25940
H246        H  0.53277101  0.23857736  0.21681605     0.06640
N247        N  0.47546165  0.41826616  0.05596896    -0.47160
H248        H  0.62890262  0.42711188  0.25848900     0.06630
C249        C  0.77292556  0.31221048  0.16229728     0.42330
C250        C  0.53462665  0.48665411  0.13373695    -0.06690
Co251      Co  0.65244272  0.40320426  0.15899863     0.73820
N252        N  0.60206731  0.31277561  0.24933264    -0.46880
C253        C  0.60640134  0.34828882  0.95468754     0.42600
N254        N  0.71466481  0.46570455  0.10742970    -0.46870
Co255      Co  0.62524558  0.28344661  0.15996070     0.73890
C256        C  0.66091988  0.20101412  0.10498958    -0.07200
C257        C  0.45740902  0.34055728  0.05175137    -0.06760
N258        N  0.65126596  0.43977899  0.07291328    -0.26290
N259        N  0.48373067  0.25359371  0.12271674    -0.47050
H260        H  0.58553843  0.27191474  0.97119722     0.06600
C261        C  0.75296581  0.35972250  0.16031218    -0.07170
Cl262      Cl  0.60426445  0.34965865  0.11430406    -0.50170
C263        C  0.60440453  0.35173070  0.27446782     0.42360
H264        H  0.65353020  0.48567832  0.02043400     0.06570
N265        N  0.73608674  0.28118291  0.16322945    -0.46880
C266        C  0.54959486  0.50100480  0.69059873     0.42210
N267        N  0.55377738  0.43159038  0.66208911     0.01100
C268        C  0.75300981  0.29698568  0.62360026    -0.06780
H269        H  0.70480927  0.42790226  0.51277683     0.06590
C270        C  0.55979208  0.32955799  0.47908532    -0.07130
Co271      Co  0.65325476  0.39603254  0.66056536     0.74180
N272        N  0.68323259  0.40539952  0.57287236    -0.26310
Co273      Co  0.66836689  0.33172302  0.56901585     0.74070
C274        C  0.59750879  0.34962265  0.45449782     0.42310
N275        N  0.49814742  0.34400687  0.57213133     0.00710
N276        N  0.62318168  0.34078031  0.51756039     0.00820
N277        N  0.74418061  0.34071708  0.68250235    -0.47150
H278        H  0.63124770  0.50642473  0.69600632     0.06580
N279        N  0.67743800  0.42861716  0.60831574     0.01110
N280        N  0.65009348  0.25899301  0.56785961     0.00850
C281        C  0.65035819  0.18273170  0.56449678     0.42450
N282        N  0.49269376  0.37128030  0.60530737    -0.25760
C283        C  0.64560159  0.35825444  0.74949519    -0.06680
N284        N  0.52401372  0.46365304  0.67590072    -0.46870
N285        N  0.67866586  0.22176986  0.56504744    -0.47090
C286        C  0.60709466  0.34116329  0.77451808     0.42220
N287        N  0.70805310  0.34679744  0.65557752     0.01090
N288        N  0.51770677  0.28976043  0.65617382    -0.25780
N289        N  0.59841014  0.44522225  0.66627860    -0.26280
N290        N  0.52112900  0.26408670  0.62181809     0.00730
H291        H  0.47234039  0.28594941  0.70806471     0.06620
H292        H  0.56871244  0.17931658  0.56589293     0.06660
N293        N  0.71304125  0.32237672  0.62066605    -0.26330
N294        N  0.57896391  0.32549039  0.51759543    -0.25940
N295        N  0.58109408  0.34985573  0.71146986     0.01100
C296        C  0.70064483  0.48302779  0.56736348     0.42490
C297        C  0.45744525  0.40208515  0.59651468    -0.07190
N298        N  0.60507460  0.24616839  0.56897077    -0.25940
H299        H  0.52449666  0.31801507  0.46928902     0.06640
N300        N  0.68728139  0.47422815  0.60630389    -0.47160
H301        H  0.44510176  0.42983410  0.61708155     0.06630
C302        C  0.46812231  0.22859652  0.65706886     0.42330
C303        C  0.59947687  0.48892939  0.68379144    -0.06690
Co304      Co  0.53608071  0.36073778  0.65899011     0.73820
N305        N  0.46834429  0.35366111  0.54103843    -0.46880
C306        C  0.77323185  0.30886915  0.66460022     0.42600
N307        N  0.56806653  0.33727784  0.74896925    -0.46870
Co308      Co  0.55073727  0.29439657  0.56984628     0.73890
C309        C  0.60166133  0.19908328  0.56702120    -0.07200
C310        C  0.69793950  0.43683457  0.54476550    -0.06760
N311        N  0.62613647  0.36278348  0.71129285    -0.26290
N312        N  0.63587147  0.35484353  0.48043619    -0.47050
H313        H  0.76781079  0.27577648  0.59887526     0.06600
C314        C  0.48729171  0.26892498  0.68110307    -0.07170
Cl315      Cl  0.60213470  0.34566708  0.61465865    -0.50170
C316        C  0.44101055  0.38954819  0.55391423     0.42360
H317        H  0.68099561  0.36964757  0.75916690     0.06570
N318        N  0.49079043  0.22798867  0.62059067    -0.46880
C319        C  0.20724887  0.02796702  0.30524012     0.42210
N320        N  0.19059152  0.08148019  0.26030883     0.01100
C321        C  0.10805440  0.31060613  0.28150719    -0.06780
H322        H  0.03520121  0.19392253  0.38751836     0.06590
C323        C  0.97774408  0.09085290  0.26800887    -0.07130
Co324      Co  0.17862444  0.18006918  0.29541908     0.74180
N325        N  0.09046073  0.18722716  0.34300986    -0.26310
Co326      Co  0.05965390  0.21169139  0.28771253     0.74070
C327        C  0.96497175  0.10353232  0.31066612     0.42310
N328        N  0.06773956  0.06736976  0.20208823     0.00710
N329        N  0.01100249  0.15684442  0.28795786     0.00820
N330        N  0.18552030  0.29067266  0.28817709    -0.47150
H331        H  0.21006415  0.08349110  0.35909708     0.06580
N332        N  0.13505416  0.17349553  0.34611427     0.01110
N333        N  0.02591217  0.23534381  0.23311867     0.00850
C334        C  0.97054322  0.26646112  0.19431384     0.42450
N335        N  0.11315108  0.05749886  0.20006434    -0.25760
C336        C  0.26322824  0.21194462  0.24455510    -0.06680
N337        N  0.19748090  0.03549424  0.26476236    -0.46870
N338        N  0.99530270  0.27103100  0.23101482    -0.47090
C339        C  0.28407223  0.19831726  0.20510483     0.42220
N340        N  0.15779177  0.25259705  0.29043956     0.01090
N341        N  0.13343445  0.13930899  0.15197450    -0.25780
N342        N  0.19482780  0.10602771  0.29571679    -0.26280
N343        N  0.08734007  0.14833666  0.14955354     0.00730
H344        H  0.18786928  0.13640739  0.10654887     0.06620
H345        H  0.97222227  0.20410680  0.14800765     0.06660
N346        N  0.11226600  0.26363765  0.28640241    -0.26330
N347        N  0.00635071  0.12635306  0.25638344    -0.25940
N348        N  0.21701895  0.16244072  0.21078619     0.01100
C349        C  0.10947552  0.16762003  0.40800614     0.42490
C350        C  0.11754243  0.01225003  0.18712339    -0.07190
N351        N  0.02085821  0.20620147  0.20083336    -0.25940
H352        H  0.96844949  0.05952214  0.24964584     0.06640
N353        N  0.14810961  0.16160235  0.38465358    -0.47160
H354        H  0.15039254  0.99555102  0.17849262     0.06630
C355        C  0.11136490  0.15714063  0.08722812     0.42330
C356        C  0.20606523  0.07492029  0.32626671    -0.06690
Co357      Co  0.16437095  0.11048613  0.20543547     0.73820
N358        N  0.04044585  0.03096984  0.19083441    -0.46880
C359        C  0.15676052  0.32893458  0.28245243     0.42600
N360        N  0.25339052  0.16725357  0.18607776    -0.46870
Co361      Co  0.04496983  0.13688975  0.20190603     0.73890
C362        C  0.98798309  0.22356446  0.17426044    -0.07200
C363        C  0.07123969  0.18444046  0.38046739    -0.06760
N364        N  0.22254046  0.18755317  0.24550006    -0.26290
N365        N  0.98720199  0.14444162  0.32078673    -0.47050
H366        H  0.07473633  0.32921987  0.27766335     0.06600
C367        C  0.15166753  0.14429376  0.11436637    -0.07170
Cl368      Cl  0.11207128  0.16023428  0.24736447    -0.50170
C369        C  0.06901583  0.99423379  0.18155178     0.42360
H370        H  0.27814036  0.23292066  0.27024234     0.06570
N371        N  0.07260154  0.15887932  0.11107399    -0.46880
C372        C  0.20441241  0.01934255  0.80716665     0.42210
N373        N  0.18616865  0.07050076  0.76083589     0.01100
C374        C  0.10369043  0.30005954  0.77962821    -0.06780
H375        H  0.03362306  0.18711468  0.88564825     0.06590
C376        C  0.96821793  0.08641091  0.76450282    -0.07130
Co377      Co  0.17621810  0.17084792  0.79241747     0.74180
N378        N  0.08840653  0.17858717  0.84095140    -0.26310
Co379      Co  0.05718340  0.20187509  0.78544122     0.74070
C380        C  0.95565802  0.09971785  0.80704278     0.42310
N381        N  0.06172140  0.05626600  0.70333761     0.00710
N382        N  0.00755399  0.14832647  0.78616293     0.00820
N383        N  0.18195039  0.28238409  0.78547628    -0.47150
H384        H  0.20971790  0.07738425  0.85890803     0.06580
N385        N  0.13342854  0.16622447  0.84423025     0.01110
N386        N  0.02381427  0.22534335  0.73081627     0.00850
C387        C  0.96829943  0.25707430  0.69278421     0.42450
N388        N  0.10685204  0.04475531  0.70408422    -0.25760
C389        C  0.25837169  0.20100864  0.73574931    -0.06680
N390        N  0.19311826  0.02481224  0.76676814    -0.46870
N391        N  0.99355636  0.26126338  0.72913242    -0.47090
C392        C  0.27611642  0.18485067  0.69584948     0.42220
N393        N  0.15524954  0.24330327  0.78640439     0.01090
N394        N  0.12849755  0.12336924  0.65096979    -0.25780
N395        N  0.19201036  0.09681854  0.79509195    -0.26280
N396        N  0.08302081  0.13480318  0.64843376     0.00730
H397        H  0.18328103  0.11933268  0.60583230     0.06620
H398        H  0.97006476  0.19559327  0.64543171     0.06660
N399        N  0.10943691  0.25331715  0.78319916    -0.26330
N400        N  0.00074044  0.11880361  0.75420728    -0.25940
N401        N  0.21180917  0.14777918  0.70750422     0.01100
C402        C  0.10861637  0.16341024  0.90672722     0.42490
C403        C  0.11050651  0.99742299  0.70017804    -0.07190
N404        N  0.01853850  0.19652350  0.69832284    -0.25940
H405        H  0.95654093  0.05653242  0.74529562     0.06640
N406        N  0.14717763  0.15704410  0.88324561    -0.47160
H407        H  0.14363316  0.97834260  0.69906312     0.06630
C408        C  0.10768682  0.14311623  0.58647576     0.42330
C409        C  0.20424334  0.06721040  0.82653265    -0.06690
Co410      Co  0.15905461  0.09661011  0.70552986     0.73820
N411        N  0.03364291  0.01896530  0.69836909    -0.46880
C412        C  0.15149550  0.31960659  0.78091633     0.42600
N413        N  0.24594656  0.15137776  0.68042153    -0.46870
Co414      Co  0.04044692  0.12646567  0.70047072     0.73890
C415        C  0.98599789  0.21463308  0.67185017    -0.07200
C416        C  0.06964400  0.17746812  0.87868044    -0.06760
N417        N  0.21865796  0.17564811  0.74054572    -0.26290
N418        N  0.98182098  0.13796969  0.81828898    -0.47050
H419        H  0.06990219  0.31810868  0.77699999     0.06600
C420        C  0.14713846  0.12774936  0.61345196    -0.07170
Cl421      Cl  0.10829372  0.14921167  0.74584943    -0.50170
C422        C  0.06148658  0.98002157  0.69608569     0.42360
H423        H  0.27461841  0.22494379  0.75869719     0.06570
N424        N  0.06900989  0.14683170  0.61016522    -0.46880
C425        C  0.12180379  0.11832031  0.47068663    -0.20550
C426        C  0.10865644  0.16212186  0.45373036    -0.07120
C427        C  0.09494876  0.19959014  0.48062188     0.13750
C428        C  0.09423792  0.19203635  0.52375612    -0.20610
C429        C  0.10755008  0.14830854  0.54070852    -0.07120
C430        C  0.12107166  0.11077359  0.51382641     0.13740
C431        C  0.13295473  0.06218917  0.53020054    -0.23960
H432        H  0.13198608  0.08963810  0.44995563     0.15020
H433        H  0.08412440  0.22072131  0.54450445     0.15050
C434        C  0.08305234  0.24820226  0.46433702    -0.23900
H435        H  0.13957045  0.03637315  0.50458143     0.05270
H436        H  0.10293981  0.04856618  0.54814999     0.08490
H437        H  0.16549044  0.06383762  0.55050533     0.08490
H438        H  0.05040879  0.24661441  0.44417780     0.08480
H439        H  0.11300035  0.26183463  0.44631367     0.08480
H440        H  0.07656203  0.27399379  0.49000197     0.05250
C441        C  0.09497646  0.19903940  0.02085473    -0.20550
C442        C  0.11015482  0.15771707  0.04101557    -0.07120
C443        C  0.12449069  0.11813485  0.01676798     0.13750
C444        C  0.12389365  0.12123361  0.97308352    -0.20610
C445        C  0.10888199  0.16261402  0.95291646    -0.07120
C446        C  0.09453087  0.20220125  0.97715568     0.13740
C447        C  0.08074041  0.24859988  0.95739459    -0.23960
H448        H  0.08429016  0.22934869  0.03949119     0.15020
H449        H  0.13466500  0.09093475  0.95446756     0.15050
C450        C  0.13885786  0.07193825  0.03655580    -0.23900
H451        H  0.07424907  0.27669121  0.98115035     0.05270
H452        H  0.04758525  0.24422686  0.93822073     0.08490
H453        H  0.10970872  0.26105849  0.93762923     0.08490
H454        H  0.11025188  0.05950363  0.05661695     0.08480
H455        H  0.17215987  0.07662410  0.05547833     0.08480
H456        H  0.14520346  0.04374455  0.01285866     0.05250
C457        C  0.90671030  0.31832045  0.67943335    -0.20550
C458        C  0.91794386  0.27139916  0.68974446    -0.07120
C459        C  0.88083530  0.23876754  0.69720167     0.13750
C460        C  0.83358426  0.25292391  0.69055532    -0.20610
C461        C  0.82249490  0.29901756  0.67814250    -0.07120
C462        C  0.85918164  0.33257598  0.67354309     0.13740
C463        C  0.84822197  0.38279260  0.66099396    -0.23960
H464        H  0.93517921  0.34344798  0.67486704     0.15020
H465        H  0.80505747  0.22757120  0.69419579     0.15050
C466        C  0.89041950  0.18920833  0.71268515    -0.23900
H467        H  0.88105302  0.40428124  0.65840248     0.05270
H468        H  0.82590739  0.40005458  0.68467236     0.08490
H469        H  0.82884825  0.38275014  0.63033524     0.08490
H470        H  0.91314274  0.19086528  0.74156998     0.08480
H471        H  0.90803034  0.16752882  0.68867950     0.08480
H472        H  0.85707402  0.17047998  0.72004895     0.05250
C473        C  0.40573418  0.16905090  0.67023551    -0.20550
C474        C  0.41753740  0.21547069  0.65940355    -0.07120
C475        C  0.38121054  0.25028198  0.65616345     0.13750
C476        C  0.33536620  0.23904622  0.66825109    -0.20610
C477        C  0.32401366  0.19325665  0.68066652    -0.07120
C478        C  0.35901435  0.15730462  0.68036200     0.13740
C479        C  0.34770560  0.10721485  0.69255510    -0.23960
H480        H  0.43342385  0.14244290  0.67227514     0.15020
H481        H  0.30809757  0.26620856  0.66764716     0.15050
C482        C  0.38916095  0.29956318  0.63996409    -0.23900
H483        H  0.37951432  0.08401251  0.69179543     0.05270
H484        H  0.32035211  0.09190046  0.67057008     0.08490
H485        H  0.33422003  0.10705885  0.72461582     0.08490
H486        H  0.42454852  0.30410498  0.62677162     0.08480
H487        H  0.38470997  0.32617289  0.66538055     0.08480
H488        H  0.36275992  0.30685519  0.61442966     0.05250
C489        C  0.57888157  0.31398992  0.88644589    -0.20550
C490        C  0.60682608  0.34801324  0.90853863    -0.07120
C491        C  0.63455789  0.38001775  0.88616438     0.13750
C492        C  0.63413929  0.37661337  0.84251772    -0.20610
C493        C  0.60618262  0.34255468  0.82053477    -0.07120
C494        C  0.57796474  0.31102402  0.84283839     0.13740
C495        C  0.54770877  0.27340138  0.82103680    -0.23960
H496        H  0.55694594  0.28976690  0.90326946     0.15020
H497        H  0.65534143  0.40134428  0.82547754     0.15050
C498        C  0.66543264  0.41710813  0.90795222    -0.23900
H499        H  0.53003619  0.25019791  0.84350470     0.05270
H500        H  0.57011533  0.25058077  0.80122455     0.08490
H501        H  0.51944844  0.29025341  0.80148102     0.08490
H502        H  0.69073111  0.39984989  0.93019441     0.08480
H503        H  0.64304595  0.44280145  0.92490627     0.08480
H504        H  0.68639275  0.43751784  0.88561850     0.05250
C505        C  0.56827526  0.32259918  0.38434138    -0.20550
C506        C  0.59868541  0.35237415  0.40847235    -0.07120
C507        C  0.62996469  0.38309545  0.38813101     0.13750
C508        C  0.63050499  0.38239160  0.34444953    -0.20610
C509        C  0.60101914  0.35159210  0.32042493    -0.07120
C510        C  0.56909540  0.32175743  0.34073589     0.13740
C511        C  0.53427819  0.29052828  0.31667214    -0.23960
H512        H  0.54410999  0.29909188  0.39957214     0.15020
H513        H  0.65495694  0.40549670  0.32904655     0.15050
C514        C  0.66234614  0.41732540  0.41195293    -0.23900
H515        H  0.50982359  0.27189615  0.33739252     0.05270
H516        H  0.55327433  0.26307289  0.29860763     0.08490
H517        H  0.51264961  0.31310367  0.29545139     0.08490
H518        H  0.68932396  0.39754994  0.43066304     0.08480
H519        H  0.64124414  0.44031596  0.43271491     0.08480
H520        H  0.68177686  0.44077809  0.39082769     0.05250
C521        C  0.83667750  0.27255875  0.20392856    -0.20550
C522        C  0.82371244  0.30054958  0.16970483    -0.07120
C523        C  0.85953526  0.31843868  0.14427382     0.13750
C524        C  0.90741508  0.30814503  0.15398293    -0.20610
C525        C  0.92040664  0.28106141  0.18870101    -0.07120
C526        C  0.88457672  0.26263538  0.21383732     0.13740
C527        C  0.89654444  0.23140182  0.25042897    -0.23960
H528        H  0.80917572  0.25884545  0.22329960     0.15020
H529        H  0.93490683  0.32071716  0.13401824     0.15050
C530        C  0.84747070  0.34649671  0.10577412    -0.23900
H531        H  0.86415283  0.21911863  0.26587908     0.05270
H532        H  0.91868989  0.25140022  0.27392890     0.08490
H533        H  0.91617239  0.19950519  0.23987390     0.08490
H534        H  0.83100549  0.38081081  0.11432007     0.08480
H535        H  0.82260230  0.32582953  0.08495678     0.08480
H536        H  0.87958669  0.35460698  0.08803203     0.05250
C537        C  0.40467737  0.19124646  0.15361113    -0.20550
C538        C  0.43038727  0.22607758  0.17640711    -0.07120
C539        C  0.40771085  0.25234357  0.20756540     0.13750
C540        C  0.36003193  0.24279824  0.21558022    -0.20610
C541        C  0.33402051  0.20742534  0.19326094    -0.07120
C542        C  0.35701270  0.18118931  0.16168903     0.13740
C543        C  0.33223205  0.14257500  0.13620691    -0.23960
H544        H  0.42205377  0.17206194  0.12888115     0.15020
H545        H  0.34298658  0.26385257  0.23920682     0.15050
C546        C  0.43320882  0.29151195  0.23146162    -0.23900
H547        H  0.35599052  0.12615018  0.11316988     0.05270
H548        H  0.30130403  0.15754079  0.11861273     0.08490
H549        H  0.32046239  0.11393954  0.15689295     0.08490
H550        H  0.44601177  0.31862863  0.20972010     0.08480
H551        H  0.46368813  0.27600372  0.24895873     0.08480
H552        H  0.41002193  0.30942413  0.25412352     0.05250
C553        C  0.04024075  0.88516192  0.61370961    -0.20550
C554        C  0.99065330  0.88579636  0.61338562    -0.07120
C555        C  0.96725442  0.90385362  0.64847796     0.13750
C556        C  0.99369285  0.92835025  0.67942489    -0.20610
C557        C  0.04251249  0.93608186  0.67562986    -0.07120
C558        C  0.06688486  0.90964575  0.64504036     0.13740
C559        C  0.12012425  0.90855404  0.64345888    -0.23960
H560        H  0.05795880  0.86878439  0.58776898     0.15020
H561        H  0.97521525  0.94608075  0.70436165     0.15050
C562        C  0.91421340  0.89978010  0.65253918    -0.23900
H563        H  0.13222402  0.88221680  0.62004052     0.05270
H564        H  0.13555580  0.89800965  0.67423451     0.08490
H565        H  0.13377546  0.94366507  0.63437028     0.08490
H566        H  0.90312347  0.86211222  0.64868753     0.08480
H567        H  0.89524186  0.92168654  0.62893596     0.08480
H568        H  0.90306314  0.91230489  0.68364192     0.05250
C569        C  0.94184113  0.01435213  0.39519559    -0.20550
C570        C  0.89683391  0.02892342  0.40764571    -0.07120
C571        C  0.87441044  0.06779995  0.38775138     0.13750
C572        C  0.89717784  0.09072316  0.35548589    -0.20610
C573        C  0.94119382  0.07501671  0.34189913    -0.07120
C574        C  0.96434305  0.03706337  0.36241917     0.13740
C575        C  0.01289899  0.02099211  0.35003439    -0.23960
H576        H  0.95858616  0.98414078  0.41007480     0.15020
H577        H  0.88048097  0.12101712  0.34062089     0.15050
C578        C  0.82662650  0.08560392  0.40086251    -0.23900
H579        H  0.02613732  0.99119612  0.36945077     0.05270
H580        H  0.03851416  0.05089623  0.35383249     0.08490
H581        H  0.01155016  0.00878595  0.31700782     0.08490
H582        H  0.82831226  0.09504493  0.43455507     0.08480
H583        H  0.79910224  0.05790267  0.39491540     0.08480
H584        H  0.81541705  0.11766805  0.38340358     0.05250
C585        C  0.74679027  0.59166466  0.50978489    -0.20550
C586        C  0.73484310  0.62822097  0.53769711    -0.07120
C587        C  0.71129078  0.61711011  0.57411686     0.13750
C588        C  0.70003098  0.56965045  0.58178871    -0.20610
C589        C  0.71222555  0.53233150  0.55428450    -0.07120
C590        C  0.73620322  0.54379652  0.51765005     0.13740
C591        C  0.75157125  0.50654358  0.48693339    -0.23960
H592        H  0.76510774  0.60065960  0.48180680     0.15020
H593        H  0.68142716  0.56188246  0.60986322     0.15050
C594        C  0.69692552  0.65542261  0.60443432    -0.23900
H595        H  0.77254765  0.52205848  0.46180372     0.05270
H596        H  0.71987341  0.48947221  0.47178913     0.08490
H597        H  0.77430594  0.47981092  0.50294165     0.08490
H598        H  0.67323683  0.68127412  0.58831988     0.08480
H599        H  0.72893987  0.67421155  0.61731581     0.08480
H600        H  0.67761045  0.64067433  0.63091875     0.05250
C601        C  0.63225084  0.09684609  0.56899705    -0.20550
C602        C  0.66496735  0.13255671  0.55896905    -0.07120
C603        C  0.70891657  0.11920817  0.54224974     0.13750
C604        C  0.71839576  0.07090619  0.53563186    -0.20610
C605        C  0.68534812  0.03581072  0.54534116    -0.07120
C606        C  0.64190977  0.04867194  0.56218896     0.13740
C607        C  0.60609672  0.01155488  0.57321918    -0.23960
H608        H  0.59885030  0.10635151  0.58253467     0.15020
H609        H  0.75200133  0.06025312  0.52289874     0.15050
C610        C  0.74574844  0.15510266  0.53065071    -0.23900
H611        H  0.57368782  0.02771462  0.58612169     0.05270
H612        H  0.62193531  0.98746254  0.59690736     0.08490
H613        H  0.59538002  0.99049389  0.54494648     0.08490
H614        H  0.75812684  0.17559089  0.55874786     0.08480
H615        H  0.73051493  0.17950807  0.50693218     0.08480
H616        H  0.77735077  0.13787730  0.51725352     0.05250
C617        C  0.79203901  0.88800360  0.76392962    -0.20550
C618        C  0.79057699  0.84464523  0.78498284    -0.07120
C619        C  0.78685375  0.80198385  0.76116116     0.13750
C620        C  0.78625429  0.80399665  0.71746947    -0.20610
C621        C  0.78894032  0.84730255  0.69637648    -0.07120
C622        C  0.79052648  0.89013026  0.72026215     0.13740
C623        C  0.79030144  0.93851226  0.70066775    -0.23960
H624        H  0.79463089  0.92089252  0.78173033     0.15020
H625        H  0.78353594  0.77109068  0.69977448     0.15050
C626        C  0.78257590  0.75407196  0.78104388    -0.23900
H627        H  0.79006203  0.96762260  0.72438506     0.05270
H628        H  0.75796713  0.94251088  0.68031588     0.08490
H629        H  0.82250869  0.94339457  0.68234155     0.08490
H630        H  0.75074601  0.75331751  0.80048957     0.08480
H631        H  0.81497214  0.74659216  0.80040346     0.08480
H632        H  0.77862291  0.72495069  0.75747551     0.05250
C633        C  0.81915764  0.88995866  0.21795554    -0.20550
C634        C  0.78655989  0.85853100  0.19825165    -0.07120
C635        C  0.76145338  0.82596614  0.22230178     0.13750
C636        C  0.77045935  0.82476887  0.26544710    -0.20610
C637        C  0.80356752  0.85563663  0.28507538    -0.07120
C638        C  0.82802457  0.88889064  0.26119501     0.13740
C639        C  0.86475851  0.92193433  0.28093463    -0.23960
H640        H  0.83887186  0.91437582  0.19927030     0.15020
H641        H  0.75089148  0.80019254  0.28410297     0.15050
C642        C  0.72411453  0.79346612  0.20278041    -0.23900
H643        H  0.88208457  0.94393370  0.25736212     0.05270
H644        H  0.89274800  0.90097910  0.29740190     0.08490
H645        H  0.84803574  0.94642031  0.30342323     0.08490
H646        H  0.74032769  0.76828564  0.18060017     0.08480
H647        H  0.69665534  0.81484226  0.18605482     0.08480
H648        H  0.70620625  0.77219954  0.22652219     0.05250
C649        C  0.00535146  0.89365480  0.12546092    -0.20550
C650        C  0.99527742  0.91551635  0.08714043    -0.07120
C651        C  0.01854872  0.95827303  0.07770889     0.13750
C652        C  0.04799684  0.98020910  0.10818526    -0.20610
C653        C  0.05348796  0.96120821  0.14810061    -0.07120
C654        C  0.03376747  0.91648068  0.15640513     0.13740
C655        C  0.03985921  0.89343455  0.19819650    -0.23960
H656        H  0.98777758  0.86069042  0.13277477     0.15020
H657        H  0.06311618  0.01478818  0.10223078     0.15050
C658        C  0.01057076  0.98216393  0.03641465    -0.23900
H659        H  0.00468333  0.88929829  0.21229635     0.05270
H660        H  0.06318017  0.91436730  0.22005730     0.08490
H661        H  0.05609518  0.85782454  0.19419040     0.08490
H662        H  0.97320515  0.99408736  0.03297039     0.08480
H663        H  0.01872260  0.95704474  0.01069703     0.08480
H664        H  0.03351850  0.01398914  0.03362608     0.05250
C665        C  0.85824860  0.03359763  0.86030895    -0.20550
C666        C  0.87865669  0.02797885  0.90071399    -0.07120
C667        C  0.92511947  0.04571871  0.90924194     0.13750
C668        C  0.94924708  0.06813110  0.87750876    -0.20610
C669        C  0.92888378  0.07278759  0.83735142    -0.07120
C670        C  0.88278037  0.05543995  0.82856274     0.13740
C671        C  0.85860749  0.06127079  0.78638467    -0.23960
H672        H  0.82264043  0.02062183  0.85315651     0.15020
H673        H  0.98469054  0.08198634  0.88402764     0.15050
C674        C  0.95043934  0.04098115  0.95086963    -0.23900
H675        H  0.82147409  0.04790230  0.78574754     0.05270
H676        H  0.87789840  0.04088929  0.76253780     0.08490
H677        H  0.85769640  0.09941444  0.77813069     0.08490
H678        H  0.95375345  0.00284439  0.95855249     0.08480
H679        H  0.93092423  0.06084472  0.97493830     0.08480
H680        H  0.98696157  0.05592018  0.95101568     0.05250
C681        C  0.70224585  0.62276012  0.07708881    -0.20550
C682        C  0.74264762  0.63623501  0.05623852    -0.07120
C683        C  0.77590488  0.60167656  0.04398438     0.13750
C684        C  0.76636456  0.55354881  0.05073743    -0.20610
C685        C  0.72467748  0.53982663  0.06971370    -0.07120
C686        C  0.69287524  0.57481812  0.08432131     0.13740
C687        C  0.64859975  0.56189558  0.10684699    -0.23960
H688        H  0.67727184  0.64976442  0.08661668     0.15020
H689        H  0.79067657  0.52653918  0.04007500     0.15050
C690        C  0.82077100  0.61551667  0.02294241    -0.23900
H691        H  0.62903786  0.59392623  0.11723293     0.05270
H692        H  0.65819791  0.54100015  0.13488942     0.08490
H693        H  0.62405786  0.54089332  0.08607923     0.08490
H694        H  0.84224265  0.63966701  0.04374741     0.08480
H695        H  0.81190428  0.63385643  0.99336872     0.08480
H696        H  0.84285248  0.58405525  0.01558220     0.05250
C697        C  0.63415148  0.09788736  0.08310295    -0.20550
C698        C  0.64910185  0.13024260  0.05342270    -0.07120
C699        C  0.66447092  0.11361059  0.01461537     0.13750
C700        C  0.66787174  0.06454420  0.00752073    -0.20610
C701        C  0.65630994  0.03218625  0.03850935    -0.07120
C702        C  0.63752987  0.04889237  0.07603308     0.13740
C703        C  0.62166820  0.01506917  0.10872241    -0.23960
H704        H  0.62062373  0.11102812  0.11228278     0.15020
H705        H  0.68277118  0.05156415  0.97883102     0.15050
C706        C  0.67980349  0.14748735  0.98178004    -0.23900
H707        H  0.60658915  0.03421677  0.13569589     0.05270
H708        H  0.65207031  0.99359945  0.12049325     0.08490
H709        H  0.59384363  0.99099149  0.09506049     0.08490
H710        H  0.70952188  0.16997114  0.99436226     0.08480
H711        H  0.64959653  0.17055928  0.97219958     0.08480
H712        H  0.69205067  0.12837674  0.95362481     0.05250
C713        C  0.41929325  0.40118283  0.97262392    -0.20550
C714        C  0.40428675  0.40248001  0.01378813    -0.07120
C715        C  0.36240153  0.42677568  0.02349643     0.13750
C716        C  0.33837899  0.45267005  0.99231929    -0.20610
C717        C  0.35666886  0.45590163  0.95229476    -0.07120
C718        C  0.39610747  0.42786951  0.94172221     0.13740
C719        C  0.41588875  0.42720155  0.89871809    -0.23960
H720        H  0.45162509  0.38238374  0.96529321     0.15020
H721        H  0.30805105  0.47413125  0.00039471     0.15050
C722        C  0.34493421  0.42768483  0.06726309    -0.23900
H723        H  0.41710425  0.39004121  0.88676710     0.05270
H724        H  0.45247486  0.44201189  0.90004277     0.08490
H725        H  0.39397460  0.44788374  0.87617119     0.08490
H726        H  0.37214602  0.44416805  0.08873733     0.08480
H727        H  0.33792451  0.39082880  0.07727334     0.08480
H728        H  0.31157747  0.44836454  0.06962087     0.05250
C729        C  0.51901944  0.60370669  0.76317769    -0.20550
C730        C  0.48408724  0.58221059  0.78685529    -0.07120
C731        C  0.47415011  0.53349821  0.78126631     0.13750
C732        C  0.49826143  0.50778649  0.75110182    -0.20610
C733        C  0.53147021  0.52959173  0.72566686    -0.07120
C734        C  0.54325482  0.57779108  0.73276814     0.13740
C735        C  0.57939191  0.60248883  0.70721254    -0.23960
H736        H  0.52601373  0.64135817  0.76745982     0.15020
H737        H  0.48976170  0.47049862  0.74646524     0.15050
C738        C  0.43593277  0.50913546  0.80491860    -0.23900
H739        H  0.58244811  0.64079406  0.71564524     0.05270
H740        H  0.56905278  0.59950489  0.67364206     0.08490
H741        H  0.61482849  0.58622880  0.71269546     0.08490
H742        H  0.40123895  0.52688708  0.79888114     0.08480
H743        H  0.44506652  0.51062751  0.83875116     0.08480
H744        H  0.43187443  0.47117375  0.79556793     0.05250
C745        C  0.56060926  0.77225962  0.90190881    -0.20550
C746        C  0.57536645  0.79786008  0.93766525    -0.07120
C747        C  0.54103987  0.81687625  0.96439394     0.13750
C748        C  0.49261657  0.81050356  0.95416090    -0.20610
C749        C  0.47773445  0.78607885  0.91778862    -0.07120
C750        C  0.51218790  0.76589844  0.89163021     0.13740
C751        C  0.49838217  0.73623215  0.85366663    -0.23960
H752        H  0.58713399  0.75793012  0.88153315     0.15020
H753        H  0.46613588  0.82385862  0.97507537     0.15050
C754        C  0.55523831  0.84213734  0.00463570    -0.23900
H755        H  0.52992426  0.72171758  0.83804844     0.05270
H756        H  0.47837627  0.75808850  0.83067297     0.08490
H757        H  0.47626874  0.70575191  0.86282488     0.08490
H758        H  0.57441308  0.87550541  0.99837946     0.08480
H759        H  0.57840345  0.81873219  0.02396648     0.08480
H760        H  0.52383504  0.85167337  0.02299038     0.05250
C761        C  0.05849369  0.71516754  0.95592531    -0.20550
C762        C  0.06648467  0.70189943  0.91479724    -0.07120
C763        C  0.02772298  0.70145133  0.88543686     0.13750
C764        C  0.98213833  0.71483042  0.89817738    -0.20610
C765        C  0.97415004  0.72924628  0.93938777    -0.07120
C766        C  0.01352409  0.72941160  0.96865426     0.13740
C767        C  0.00990875  0.74538193  0.01343575    -0.23960
H768        H  0.08823003  0.71554350  0.97822598     0.15020
H769        H  0.95271176  0.71424747  0.87564663     0.15050
C770        C  0.03365065  0.68556043  0.84094308    -0.23900
H771        H  0.04429067  0.74260061  0.03117561     0.05270
H772        H  0.98401290  0.72296363  0.02950852     0.08490
H773        H  0.99950147  0.78329666  0.01443552     0.08490
H774        H  0.04879905  0.64918349  0.84011132     0.08480
H775        H  0.05744186  0.71044290  0.82514402     0.08480
H776        H  0.99923266  0.68477720  0.82304741     0.05250
C777        C  0.13019598  0.40067632  0.80485034    -0.20550
C778        C  0.16284092  0.37133240  0.78464540    -0.07120
C779        C  0.20325321  0.39250382  0.76757128     0.13750
C780        C  0.21066292  0.44200226  0.77255922    -0.20610
C781        C  0.17857895  0.47074916  0.79409311    -0.07120
C782        C  0.13753411  0.44964295  0.80989828     0.13740
C783        C  0.10133937  0.47758922  0.83361742    -0.23960
H784        H  0.09898017  0.38518071  0.81812249     0.15020
H785        H  0.24291174  0.45787833  0.76159330     0.15050
C786        C  0.23844543  0.36321080  0.74413213    -0.23900
H787        H  0.06572391  0.47271523  0.81830058     0.05270
H788        H  0.10890224  0.51623479  0.83486566     0.08490
H789        H  0.10029864  0.46448981  0.86601387     0.08490
H790        H  0.22010666  0.34462439  0.71742019     0.08480
H791        H  0.25521926  0.33665181  0.76508268     0.08480
H792        H  0.26710725  0.38556475  0.73177067     0.05250
C793        C  0.18466224  0.88866325  0.82353951    -0.20550
C794        C  0.23165943  0.87267222  0.82891949    -0.07120
C795        C  0.26826362  0.90731408  0.83593918     0.13750
C796        C  0.25724491  0.95602184  0.83371665    -0.20610
C797        C  0.21100493  0.97139078  0.82466775    -0.07120
C798        C  0.17399621  0.93740379  0.82115303     0.13740
C799        C  0.12311963  0.95260459  0.81407584    -0.23960
H800        H  0.15616690  0.86302523  0.81934852     0.15020
H801        H  0.28551476  0.98218310  0.83596216     0.15050
C802        C  0.31946462  0.89406714  0.84464804    -0.23900
H803        H  0.09842354  0.92179256  0.81312600     0.05270
H804        H  0.11872123  0.97125450  0.78411056     0.08490
H805        H  0.11276655  0.97686571  0.83975027     0.08490
H806        H  0.33410526  0.87577842  0.81708749     0.08480
H807        H  0.32227350  0.87090443  0.87227228     0.08480
H808        H  0.34207685  0.92578290  0.85140886     0.05250
C809        C  0.34240159  0.65836476  0.59454265    -0.20550
C810        C  0.30020513  0.65700865  0.56998403    -0.07120
C811        C  0.25641111  0.65111253  0.59001324     0.13750
C812        C  0.25622784  0.64818935  0.63351169    -0.20610
C813        C  0.29821269  0.65076220  0.65813307    -0.07120
C814        C  0.34213489  0.65510416  0.63816181     0.13740
C815        C  0.38909958  0.65565333  0.66216844    -0.23960
H816        H  0.37610702  0.66179095  0.57963981     0.15020
H817        H  0.22248175  0.64477085  0.64831861     0.15050
C818        C  0.20918537  0.64852484  0.56641295    -0.23900
H819        H  0.41960695  0.65551517  0.64115604     0.05270
H820        H  0.39218275  0.62368833  0.68189375     0.08490
H821        H  0.39227228  0.68826934  0.68184996     0.08490
H822        H  0.20752670  0.61611547  0.54632120     0.08480
H823        H  0.20400749  0.68072493  0.54730596     0.08480
H824        H  0.17891438  0.64648395  0.58759016     0.05250
C825        C  0.24962732  0.67670405  0.13448607    -0.20550
C826        C  0.29260448  0.67032225  0.15712995    -0.07120
C827        C  0.33504670  0.66460600  0.13539759     0.13750
C828        C  0.33322314  0.66474352  0.09179207    -0.20610
C829        C  0.29022845  0.67071973  0.06904545    -0.07120
C830        C  0.24783599  0.67716863  0.09079194     0.13740
C831        C  0.20075702  0.68563794  0.06843717    -0.23960
H832        H  0.21712960  0.68195977  0.15104154     0.15020
H833        H  0.36579878  0.65914537  0.07547820     0.15050
C834        C  0.38222198  0.65672060  0.15768146    -0.23900
H835        H  0.17213785  0.69313648  0.09054269     0.05270
H836        H  0.18992038  0.65369820  0.04984467     0.08490
H837        H  0.20352403  0.71664888  0.04771344     0.08330
H838        H  0.37963725  0.62564425  0.17818765     0.08480
H839        H  0.39254049  0.68872611  0.17639899     0.08480
H840        H  0.41101413  0.64960447  0.13565866     0.05250
C841        C  0.36914519  0.42073280  0.51761054    -0.20550
C842        C  0.41859939  0.42088335  0.52328456    -0.07120
C843        C  0.44694396  0.44469165  0.49499423     0.13750
C844        C  0.42519196  0.46702920  0.46112145    -0.20610
C845        C  0.37551099  0.47056087  0.45660095    -0.07120
C846        C  0.34693136  0.44599047  0.48490037     0.13740
C847        C  0.29349280  0.44571754  0.48115059    -0.23960
H848        H  0.34794607  0.40075761  0.53883208     0.15020
H849        H  0.44782107  0.48310122  0.43872503     0.15050
C850        C  0.50029535  0.44772466  0.50087752    -0.23900
H851        H  0.27767394  0.42206191  0.50433855     0.05270
H852        H  0.28176020  0.43269385  0.44966877     0.08490
H853        H  0.27952340  0.48195135  0.48687267     0.08490
H854        H  0.51630413  0.41204942  0.49856778     0.08480
H855        H  0.50960710  0.46365255  0.53190282     0.08480
H856        H  0.51653028  0.47005771  0.47693496     0.05250
C857        C  0.54182501  0.54385289  0.24514139    -0.20550
C858        C  0.51735113  0.52949965  0.20793331    -0.07120
C859        C  0.46857051  0.54100216  0.20281514     0.13750
C860        C  0.44656487  0.56725436  0.23423333    -0.20610
C861        C  0.47165380  0.58269189  0.27038098    -0.07120
C862        C  0.51958617  0.57019800  0.27632310     0.13740
C863        C  0.54762223  0.58588134  0.31485748    -0.23960
H864        H  0.57899179  0.53492405  0.24983897     0.15020
H865        H  0.40935818  0.57630994  0.23049588     0.15050
C866        C  0.43887742  0.52593051  0.16507888    -0.23900
H867        H  0.58501316  0.57350828  0.31435912     0.05270
H868        H  0.53126115  0.57110659  0.34283217     0.08490
H869        H  0.54786712  0.62525550  0.31729308     0.08490
H870        H  0.44083016  0.48684125  0.16047821     0.08480
H871        H  0.45117964  0.54472034  0.13735066     0.08480
H872        H  0.40086651  0.53519612  0.16832561     0.05250
C873        C  0.51671828  0.78945719  0.38490546    -0.20550
C874        C  0.48675044  0.79431084  0.41882070    -0.07120
C875        C  0.50681943  0.80529791  0.45871741     0.13750
C876        C  0.55618015  0.81178705  0.46364419    -0.20610
C877        C  0.58601598  0.80572597  0.42994637    -0.07120
C878        C  0.56616823  0.79471656  0.39010743     0.13740
C879        C  0.59713205  0.78901032  0.35305981    -0.23960
H880        H  0.50163489  0.77982463  0.35449391     0.15020
H881        H  0.57167653  0.82110549  0.49401321     0.15050
C882        C  0.47618707  0.81037982  0.49605029    -0.23900
H883        H  0.57589353  0.78086032  0.32408357     0.05270
H884        H  0.62255530  0.75947094  0.35839720     0.08490
H885        H  0.61721331  0.82235668  0.34833873     0.08490
H886        H  0.45805214  0.77624458  0.50197086     0.08480
H887        H  0.44916362  0.83838424  0.49034548     0.08480
H888        H  0.49743843  0.82039639  0.52459041     0.05250
C889        C  0.05248575  0.67785163  0.44767930    -0.20550
C890        C  0.07573574  0.70606383  0.41902454    -0.07120
C891        C  0.04938659  0.74193453  0.39770107     0.13750
C892        C  0.00084022  0.74778551  0.40519884    -0.20610
C893        C  0.97809495  0.71977200  0.43404344    -0.07120
C894        C  0.00424128  0.68449316  0.45567642     0.13740
C895        C  0.98115922  0.65311834  0.48683236    -0.23960
H896        H  0.07191720  0.65018533  0.46384202     0.15020
H897        H  0.98092748  0.77567074  0.38968652     0.15050
C898        C  0.07204306  0.77555128  0.36805297    -0.23900
H899        H  0.00603723  0.62574740  0.49912041     0.05270
H900        H  0.95012109  0.63459296  0.47180671     0.08490
H901        H  0.96934913  0.67465362  0.51373392     0.08490
H902        H  0.08317883  0.75601477  0.33980731     0.08480
H903        H  0.10312862  0.79338446  0.38370619     0.08480
H904        H  0.04702842  0.80368069  0.35747117     0.05250
C905        C  0.13650559  0.41519797  0.27332313    -0.20550
C906        C  0.17170158  0.38024155  0.28051419    -0.07120
C907        C  0.21931078  0.39573900  0.28762873     0.13750
C908        C  0.22921487  0.44475487  0.29114047    -0.20610
C909        C  0.19326761  0.47915355  0.28758643    -0.07120
C910        C  0.14664806  0.46417978  0.27715136     0.13740
C911        C  0.10702069  0.49974826  0.27279869    -0.23960
H912        H  0.10020668  0.40450996  0.26644279     0.15020
H913        H  0.26503070  0.45634374  0.29954537     0.15050
C914        C  0.25990040  0.36137352  0.29330110    -0.23900
H915        H  0.07245968  0.48230335  0.26480754     0.05270
H916        H  0.11493913  0.52495229  0.24770999     0.08490
H917        H  0.10340445  0.51981512  0.30253339     0.08490
H918        H  0.26216921  0.33805601  0.26526604     0.08480
H919        H  0.25475900  0.33961668  0.32130718     0.08480
H920        H  0.29452994  0.37999289  0.29772744     0.05250
C921        C  0.18820177  0.89563582  0.31688145    -0.20550
C922        C  0.23242562  0.88147086  0.33365937    -0.07120
C923        C  0.26462900  0.91716970  0.34891476     0.13750
C924        C  0.25375776  0.96555482  0.34276094    -0.20610
C925        C  0.21160117  0.97915453  0.32194274    -0.07120
C926        C  0.17741878  0.94379694  0.31085368     0.13740
C927        C  0.12935545  0.95657948  0.29237532    -0.23960
H928        H  0.16265537  0.86889204  0.30639843     0.15020
H929        H  0.27954644  0.99264591  0.35194726     0.15050
C930        C  0.31052901  0.90487549  0.37166825    -0.23900
H931        H  0.10575645  0.92504898  0.28890255     0.05270
H932        H  0.13308502  0.97165421  0.26111910     0.08490
H933        H  0.11187473  0.98283330  0.31286612     0.08490
H934        H  0.33501159  0.88685202  0.35028290     0.08480
H935        H  0.30321841  0.88148723  0.39824556     0.08480
H936        H  0.32904929  0.93709428  0.38432323     0.05250
loop_ 
_geom_bond_atom_site_label_1 
_geom_bond_atom_site_label_2 
_geom_bond_distance 
_geom_bond_site_symmetry_2 
_ccdc_geom_bond_type 
C1           N19   1.348       .  A
C1           C38   1.474       .  S
C1          C922   1.496       .  S
N2           N19   1.323       .  A
N2           N24   1.324       .  A
N2          Co39   2.076       .  S
C3           N28   1.329       .  A
C3           C41   1.440       .  S
C3           H48   1.081       .  S
H4           C45   1.082       .  S
C5           N29   1.345       .  A
C5            C9   1.474       .  S
C5           H34   1.081       .  S
Co6          N24   2.132       .  S
Co6          N14   2.057       .  S
Co6          N46   2.059       .  S
Co6          N22   2.146       .  S
Co6         Cl50   2.442       .  S
N7           C45   1.347       .  A
N7           N14   1.316       .  A
N7           Co8   2.098       .  S
Co8          N11   2.064       .  S
Co8          N28   2.053       .  S
Co8          N15   2.086       .  S
Co8         Cl50   2.456       .  S
C9           N47   1.345       .  A
C9          C810   1.492       .  S
N10          N17   1.317       .  A
N10          N40   1.321       .  A
N10         Co43   2.061       .  S
N11          N29   1.322       .  A
N11          N47   1.318       .  A
N12          C41   1.365       .  A
N12          N22   1.337       .  A
H13          C38   1.081       .  S
N14          N35   1.319       .  A
N15          N33   1.312       .  A
N15          N20   1.326       .  A
C16          N20   1.355       .  A
C16          C44   1.460       .  S
C16         C845   1.487       .  S
N17          C32   1.344       .  A
N17         Co39   2.090       .  S
C18          N46   1.339       .  A
C18          C21   1.459       .  S
C18          H52   1.081       .  S
C21          N42   1.349       .  A
C21         C826   1.481       .  S
N22          N28   1.322       .  A
N23          C49   1.332       .  A
N23          N25   1.320       .  A
N23         Co39   2.056       .  S
N24          C38   1.348       .  A
N25          N53   1.330       .  A
N25         Co43   2.113       .  S
H26          C49   1.080       .  S
H27          C44   1.080       .  S
N29         Co43   2.114       .  S
N30          N42   1.324       .  A
N30          N46   1.316       .  A
N30         Co39   2.085       .  S
C31          N35   1.343       .  A
C31          C45   1.476       .  S
C31         C890   1.491       .  S
C32          C51   1.470       .  S
C32          H36   1.081       .  S
N33          C44   1.325       .  A
N33         Co43   2.037       .  S
C37          N53   1.356       .  A
C37          C49   1.448       .  S
C37         C861   1.474       .  S
Co39        Cl50   2.455       .  S
N40          C51   1.346       .  A
C41         C909   1.486       .  S
Co43        Cl50   2.430       .  S
C51         C874   1.481       .  S
C54          N72   1.352   1_554  A
C54          C91   1.462   1_554  S
C54         C829   1.483       .  S
N55          N72   1.324       .  A
N55          N77   1.321       .  A
N55         Co92   2.080       .  S
C56          N81   1.333       .  A
C56          C94   1.449       .  S
C56         H101   1.081       .  S
H57          C98   1.082       .  S
C58          N82   1.351       .  A
C58          C62   1.479       .  S
C58          H87   1.081       .  S
Co59         N77   2.087       .  S
Co59         N67   2.062       .  S
Co59         N99   2.065       .  S
Co59         N75   2.103       .  S
Co59       Cl103   2.432       .  S
N60          C98   1.342       .  A
N60          N67   1.316       .  A
N60         Co61   2.080       .  S
Co61         N64   2.070       .  S
Co61         N81   2.057       .  S
Co61         N68   2.071       .  S
Co61       Cl103   2.452       .  S
C62         N100   1.345       .  A
C62         C794   1.502       .  S
N63          N70   1.319       .  A
N63          N93   1.324       .  A
N63         Co96   2.073       .  S
N64          N82   1.323       .  A
N64         N100   1.320       .  A
N65          C94   1.355       .  A
N65          N75   1.326       .  A
H66          C91   1.081   1_554  S
N67          N88   1.319       .  A
N68          N86   1.315       .  A
N68          N73   1.322       .  A
C69          N73   1.348       .  A
C69          C97   1.469       .  S
C69         C813   1.489       .  S
N70          C85   1.345       .  A
N70         Co92   2.094       .  S
C71          N99   1.336       .  A
C71          C74   1.459       .  S
C71         H105   1.082       .  S
C74          N95   1.351       .  A
C74         C717   1.472       .  S
N75          N81   1.320       .  A
N76         C102   1.331       .  A
N76          N78   1.323       .  A
N76         Co92   2.060       .  S
N77          C91   1.336       .  A
N78         N106   1.335       .  A
N78         Co96   2.136       .  S
H79         C102   1.081       .  S
H80          C97   1.081       .  S
N82         Co96   2.131       .  S
N83          N95   1.325       .  A
N83          N99   1.316       .  A
N83         Co92   2.082       .  S
C84          N88   1.344       .  A
C84          C98   1.467       .  S
C84         C749   1.474       .  S
C85         C104   1.467       .  S
C85          H89   1.082       .  S
N86          C97   1.341       .  A
N86         Co96   2.078       .  S
C90         N106   1.362       .  A
C90         C102   1.441       .  S
C90         C781   1.479       .  S
Co92       Cl103   2.454       .  S
N93         C104   1.346       .  A
C94         C730   1.468       .  S
Co96       Cl103   2.452       .  S
C104        C762   1.486       .  S
C107        N125   1.339       .  A
C107        C144   1.484       .  S
C107        C765   1.501       .  S
N108        N125   1.316       .  A
N108        N130   1.321       .  A
N108       Co145   2.059   1_556  S
C109        N134   1.331       .  A
C109        C147   1.445       .  S
C109        H154   1.081       .  S
H110        C151   1.081       .  S
C111        N135   1.344       .  A
C111        C115   1.478   1_565  S
C111        H140   1.077   1_565  S
Co112       N130   2.132       .  S
Co112       N120   2.087       .  S
Co112       N152   2.076       .  S
Co112       N128   2.123       .  S
Co112      Cl156   2.459       .  S
N113        C151   1.337       .  A
N113        N120   1.317       .  A
N113       Co114   2.071       .  S
Co114       N117   2.051       .  S
Co114       N134   2.052       .  S
Co114       N121   2.073       .  S
Co114      Cl156   2.437       .  S
C115        N153   1.345   1_545  A
C115        C666   1.491       .  S
N116        N123   1.315       .  A
N116        N146   1.320       .  A
N116       Co149   2.064       .  S
N117        N135   1.317       .  A
N117        N153   1.316       .  A
N118        C147   1.358       .  A
N118        N128   1.330       .  A
H119        C144   1.081       .  S
N120        N141   1.326       .  A
N121        N139   1.315   1_556  A
N121        N126   1.323       .  A
C122        N126   1.351   1_554  A
C122        C150   1.458       .  S
C122        C701   1.467   1_565  S
N123        C138   1.341       .  A
N123       Co145   2.079       .  S
C124        N152   1.337   1_554  A
C124        C127   1.456       .  S
C124        H158   1.081   1_554  S
C127        N148   1.347       .  A
C127        C682   1.463       .  S
N128        N134   1.321       .  A
N129        C155   1.335       .  A
N129        N131   1.320       .  A
N129       Co145   2.066       .  S
N130        C144   1.355       .  A
N131        N159   1.326       .  A
N131       Co149   2.101       .  S
H132        C155   1.081       .  S
H133        C150   1.081       .  S
N135       Co149   2.101   1_556  S
N136        N148   1.323       .  A
N136        N152   1.318   1_554  A
N136       Co145   2.069       .  S
C137        N141   1.354       .  A
C137        C151   1.460       .  S
C137        C618   1.492       .  S
C138        C157   1.462       .  S
C138        H142   1.079       .  S
N139        C150   1.334       .  A
N139       Co149   2.063       .  S
C143        N159   1.355       .  A
C143        C155   1.455       .  S
C143        C634   1.474       .  S
Co145      Cl156   2.437   1_554  S
N146        C157   1.348       .  A
C147        C746   1.473       .  S
Co149      Cl156   2.446   1_554  S
C157        C650   1.472       .  S
C160        N178   1.339       .  A
C160        C197   1.474       .  S
C160        C893   1.477       .  S
N161        N178   1.318       .  A
N161        N183   1.324       .  A
N161       Co198   2.062       .  S
C162        N187   1.337       .  A
C162        C200   1.450       .  S
C162        H207   1.081       .  S
H163        C204   1.081       .  S
C164        N188   1.352       .  A
C164        C168   1.473       .  S
C164        H193   1.081       .  S
Co165       N183   2.122       .  S
Co165       N173   2.082       .  S
Co165       N205   2.072       .  S
Co165       N181   2.116       .  S
Co165      Cl209   2.446       .  S
N166        C204   1.336       .  A
N166        N173   1.316       .  A
N166       Co167   2.068       .  S
Co167       N170   2.053       .  S
Co167       N187   2.069       .  S
Co167       N174   2.075       .  S
Co167      Cl209   2.446       .  S
C168        N206   1.339       .  A
C168        C570   1.475   1_565  S
N169        N176   1.316       .  A
N169        N199   1.319       .  A
N169       Co202   2.063       .  S
N170        N188   1.320       .  A
N170        N206   1.317       .  A
N171        C200   1.355       .  A
N171        N181   1.329       .  A
H172        C197   1.081       .  S
N173        N194   1.326       .  A
N174        N192   1.314       .  A
N174        N179   1.324       .  A
C175        N179   1.353       .  A
C175        C203   1.454       .  S
C175        C605   1.464   1_565  S
N176        C191   1.342       .  A
N176       Co198   2.080       .  S
C177        N205   1.337       .  A
C177        C180   1.453       .  S
C177        H211   1.081       .  S
C180        N201   1.352       .  A
C180        C586   1.475       .  S
N181        N187   1.323       .  A
N182        C208   1.339       .  A
N182        N184   1.320       .  A
N182       Co198   2.072       .  S
N183        C197   1.351       .  A
N184        N212   1.324       .  A
N184       Co202   2.104       .  S
H185        C208   1.080       .  S
H186        C203   1.082       .  S
N188       Co202   2.117       .  S
N189        N201   1.326       .  A
N189        N205   1.319       .  A
N189       Co198   2.086       .  S
C190        N194   1.354       .  A
C190        C204   1.453       .  S
C190        C637   1.473       .  S
C191        C210   1.460       .  S
C191        H195   1.081       .  S
N192        C203   1.333       .  A
N192       Co202   2.058       .  S
C196        N212   1.353       .  A
C196        C208   1.467       .  S
C196        C621   1.495       .  S
Co198      Cl209   2.448       .  S
N199        C210   1.348       .  A
C200        C877   1.473       .  S
Co202      Cl209   2.432       .  S
C210        C554   1.469       .  S
C213        N231   1.345       .  A
C213        C250   1.477       .  S
C213        C858   1.491       .  S
N214        N231   1.318       .  A
N214        N236   1.318       .  A
N214       Co251   2.058       .  S
C215        N240   1.334   1_556  A
C215        C253   1.457       .  S
C215        H260   1.081       .  S
H216        C257   1.081       .  S
C217        N241   1.348       .  A
C217        C221   1.472       .  S
C217        H246   1.081       .  S
Co218       N236   2.105       .  S
Co218       N226   2.068       .  S
Co218       N258   2.066       .  S
Co218       N234   2.105       .  S
Co218      Cl262   2.439       .  S
N219        C257   1.342       .  A
N219        N226   1.315       .  A
N219       Co220   2.078       .  S
Co220       N223   2.061       .  S
Co220       N240   2.063       .  S
Co220       N227   2.068       .  S
Co220      Cl262   2.444       .  S
C221        N259   1.341       .  A
C221        C538   1.476       .  S
N222        N229   1.316       .  A
N222        N252   1.325       .  A
N222       Co255   2.081       .  S
N223        N241   1.322       .  A
N223        N259   1.319       .  A
N224        C253   1.356       .  A
N224        N234   1.327   1_556  A
H225        C250   1.077       .  S
N226        N247   1.320       .  A
N227        N245   1.318       .  A
N227        N232   1.322       .  A
C228        N232   1.347       .  A
C228        C256   1.459       .  S
C228        C698   1.466       .  S
N229        C244   1.338       .  A
N229       Co251   2.073       .  S
C230        N258   1.335       .  A
C230        C233   1.458       .  S
C230        H264   1.082       .  S
C233        N254   1.351       .  A
C233        C685   1.468       .  S
N234        N240   1.319       .  A
N235        C261   1.336       .  A
N235        N237   1.322       .  A
N235       Co251   2.069       .  S
N236        C250   1.345       .  A
N237        N265   1.329       .  A
N237       Co255   2.119       .  S
H238        C261   1.081       .  S
H239        C256   1.081       .  S
N241       Co255   2.116       .  S
N242        N254   1.323       .  A
N242        N258   1.316       .  A
N242       Co251   2.076       .  S
C243        N247   1.348       .  A
C243        C257   1.463       .  S
C243        C714   1.467       .  S
C244        C263   1.458       .  S
C244        H248   1.081       .  S
N245        C256   1.336       .  A
N245       Co255   2.074       .  S
C249        N265   1.357       .  A
C249        C261   1.454       .  S
C249        C522   1.481       .  S
Co251      Cl262   2.445       .  S
N252        C263   1.353       .  A
C253        C490   1.483       .  S
Co255      Cl262   2.451       .  S
C263        C509   1.483       .  S
C266        N284   1.345       .  A
C266        C303   1.469       .  S
C266        C733   1.481       .  S
N267        N284   1.316       .  A
N267        N289   1.316       .  A
N267       Co304   2.056       .  S
C268        N293   1.336       .  A
C268        C306   1.452       .  S
C268        H313   1.082       .  S
H269        C310   1.079       .  S
C270        N294   1.340       .  A
C270        C274   1.463       .  S
C270        H299   1.081       .  S
Co271       N289   2.088       .  S
Co271       N279   2.061       .  S
Co271       N311   2.061       .  S
Co271       N287   2.085       .  S
Co271      Cl315   2.460       .  S
N272        C310   1.349       .  A
N272        N279   1.320       .  A
N272       Co273   2.117       .  S
Co273       N276   2.072       .  S
Co273       N293   2.069       .  S
Co273       N280   2.110       .  S
Co273      Cl315   2.441       .  S
C274        N312   1.349       .  A
C274        C506   1.484       .  S
N275        N282   1.318       .  A
N275        N305   1.315       .  A
N275       Co308   2.041       .  S
N276        N294   1.318       .  A
N276        N312   1.323       .  A
N277        C306   1.351       .  A
N277        N287   1.327       .  A
H278        C303   1.080       .  S
N279        N300   1.317       .  A
N280        N298   1.320       .  A
N280        N285   1.327       .  A
C281        N285   1.357       .  A
C281        C309   1.453       .  S
C281        C602   1.482       .  S
N282        C297   1.345       .  A
N282       Co304   2.105       .  S
C283        N311   1.336       .  A
C283        C286   1.458       .  S
C283        H317   1.081       .  S
C286        N307   1.353       .  A
C286        C493   1.480       .  S
N287        N293   1.319       .  A
N288        C314   1.334       .  A
N288        N290   1.317       .  A
N288       Co304   2.064       .  S
N289        C303   1.346       .  A
N290        N318   1.326       .  A
N290       Co308   2.085       .  S
H291        C314   1.082       .  S
H292        C309   1.081       .  S
N294       Co308   2.086       .  S
N295        N307   1.325       .  A
N295        N311   1.320       .  A
N295       Co304   2.102       .  S
C296        N300   1.345       .  A
C296        C310   1.481       .  S
C296        C589   1.495       .  S
C297        C316   1.468       .  S
C297        H301   1.081       .  S
N298        C309   1.330       .  A
N298       Co308   2.049       .  S
C302        N318   1.354       .  A
C302        C314   1.456       .  S
C302        C474   1.477       .  S
Co304      Cl315   2.416       .  S
N305        C316   1.341       .  A
C306        C461   1.469       .  S
Co308      Cl315   2.459       .  S
C316        C842   1.460       .  S
C319        N337   1.341       .  A
C319        C356   1.477       .  S
C319        C925   1.487   1_545  S
N320        N337   1.319       .  A
N320        N342   1.324       .  A
N320       Co357   2.069       .  S
C321        N346   1.339       .  A
C321        C359   1.465       .  S
C321        H366   1.080       .  S
H322        C363   1.081       .  S
C323        N347   1.348   1_655  A
C323        C327   1.468       .  S
C323        H352   1.081       .  S
Co324       N342   2.135       .  S
Co324       N332   2.083       .  S
Co324       N364   2.072       .  S
Co324       N340   2.133       .  S
Co324      Cl368   2.447       .  S
N325        C363   1.340       .  A
N325        N332   1.316       .  A
N325       Co326   2.079       .  S
Co326       N329   2.064       .  S
Co326       N346   2.083       .  S
Co326       N333   2.086       .  S
Co326      Cl368   2.458       .  S
C327        N365   1.341       .  A
C327        C573   1.473       .  S
N328        N335   1.313       .  A
N328        N358   1.319       .  A
N328       Co361   2.061       .  S
N329        N347   1.322       .  A
N329        N365   1.320   1_455  A
N330        C359   1.360       .  A
N330        N340   1.330       .  A
H331        C356   1.081       .  S
N332        N353   1.328       .  A
N333        N351   1.317       .  A
N333        N338   1.326   1_455  A
C334        N338   1.354       .  A
C334        C362   1.455       .  S
C334        C525   1.478       .  S
N335        C350   1.342       .  A
N335       Co357   2.075       .  S
C336        N364   1.337       .  A
C336        C339   1.462       .  S
C336        H370   1.081       .  S
C339        N360   1.354       .  A
C339        C541   1.493       .  S
N340        N346   1.323       .  A
N341        C367   1.338       .  A
N341        N343   1.324       .  A
N341       Co357   2.077       .  S
N342        C356   1.355       .  A
N343        N371   1.329       .  A
N343       Co361   2.124       .  S
H344        C367   1.081       .  S
H345        C362   1.081       .  S
N347       Co361   2.117       .  S
N348        N360   1.326       .  A
N348        N364   1.316       .  A
N348       Co357   2.083       .  S
C349        N353   1.352       .  A
C349        C363   1.455       .  S
C349        C426   1.481       .  S
C350        C369   1.462   1_545  S
C350        H354   1.082   1_545  S
N351        C362   1.337   1_455  A
N351       Co361   2.068       .  S
C355        N371   1.356       .  A
C355        C367   1.458       .  S
C355        C442   1.485       .  S
Co357      Cl368   2.456       .  S
N358        C369   1.348   1_545  A
C359        C906   1.507       .  S
Co361      Cl368   2.433       .  S
C369        C653   1.466       .  S
C372        N390   1.337       .  A
C372        C409   1.476       .  S
C372        C797   1.480   1_545  S
N373        N390   1.317       .  A
N373        N395   1.323       .  A
N373       Co410   2.057       .  S
C374        N399   1.333       .  A
C374        C412   1.453       .  S
C374        H419   1.081       .  S
H375        C416   1.081       .  S
C376        N400   1.345   1_655  A
C376        C380   1.467       .  S
C376        H405   1.080       .  S
Co377       N395   2.135       .  S
Co377       N385   2.094       .  S
Co377       N417   2.090       .  S
Co377       N393   2.135       .  S
Co377      Cl421   2.459       .  S
N378        C416   1.340       .  A
N378        N385   1.317       .  A
N378       Co379   2.078       .  S
Co379       N382   2.056       .  S
Co379       N399   2.068       .  S
Co379       N386   2.080       .  S
Co379      Cl421   2.443       .  S
C380        N418   1.342       .  A
C380        C669   1.471       .  S
N381        N388   1.312       .  A
N381        N411   1.319       .  A
N381       Co414   2.069       .  S
N382        N400   1.320       .  A
N382        N418   1.317   1_455  A
N383        C412   1.362       .  A
N383        N393   1.333       .  A
H384        C409   1.081       .  S
N385        N406   1.329       .  A
N386        N404   1.317       .  A
N386        N391   1.325   1_455  A
C387        N391   1.351       .  A
C387        C415   1.459       .  S
C387        C458   1.476       .  S
N388        C403   1.341   1_545  A
N388       Co410   2.070       .  S
C389        N417   1.341       .  A
C389        C392   1.459       .  S
C389        H423   1.081       .  S
C392        N413   1.346       .  A
C392        C477   1.471       .  S
N393        N399   1.323       .  A
N394        C420   1.339       .  A
N394        N396   1.322       .  A
N394       Co410   2.079       .  S
N395        C409   1.356       .  A
N396        N424   1.328       .  A
N396       Co414   2.107       .  S
H397        C420   1.081       .  S
H398        C415   1.081       .  S
N400       Co414   2.103       .  S
N401        N413   1.324       .  A
N401        N417   1.320       .  A
N401       Co410   2.067       .  S
C402        N406   1.354       .  A
C402        C416   1.456       .  S
C402        C445   1.485       .  S
C403        C422   1.466       .  S
C403        H407   1.079       .  S
N404        C415   1.337   1_455  A
N404       Co414   2.070       .  S
C408        N424   1.354       .  A
C408        C420   1.457       .  S
C408        C429   1.480       .  S
Co410      Cl421   2.448       .  S
N411        C422   1.352   1_545  A
C412        C778   1.493       .  S
Co414      Cl421   2.444       .  S
C422        C557   1.483       .  S
C425        H432   1.084       .  S
C425        C426   1.401       .  A
C425        C430   1.407       .  A
C426        C427   1.416       .  A
C427        C428   1.406       .  A
C427        C434   1.507       .  S
C428        H433   1.084       .  S
C428        C429   1.401       .  A
C429        C430   1.416       .  A
C430        C431   1.507       .  S
C431        H435   1.111       .  S
C431        H436   1.111       .  S
C431        H437   1.108       .  S
C434        H438   1.107       .  S
C434        H439   1.111       .  S
C434        H440   1.111       .  S
C441        H448   1.084       .  S
C441        C442   1.401       .  A
C441        C446   1.408   1_554  A
C442        C443   1.418       .  A
C443        C444   1.407   1_554  A
C443        C450   1.507       .  S
C444        H449   1.084       .  S
C444        C445   1.401       .  A
C445        C446   1.418       .  A
C446        C447   1.507       .  S
C447        H451   1.111       .  S
C447        H452   1.107       .  S
C447        H453   1.111       .  S
C450        H454   1.109       .  S
C450        H455   1.107       .  S
C450        H456   1.111       .  S
C457        H464   1.084       .  S
C457        C458   1.401       .  A
C457        C462   1.406       .  A
C458        C459   1.420       .  A
C459        C460   1.401       .  A
C459        C466   1.510       .  S
C460        H465   1.085       .  S
C460        C461   1.396       .  A
C461        C462   1.412       .  A
C462        C463   1.506       .  S
C463        H467   1.111       .  S
C463        H468   1.110       .  S
C463        H469   1.110       .  S
C466        H470   1.110       .  S
C466        H471   1.108       .  S
C466        H472   1.111       .  S
C473        H480   1.084       .  S
C473        C474   1.400       .  A
C473        C478   1.407       .  A
C474        C475   1.421       .  A
C475        C476   1.399       .  A
C475        C482   1.509       .  S
C476        H481   1.085       .  S
C476        C477   1.395       .  A
C477        C478   1.415       .  A
C478        C479   1.506       .  S
C479        H483   1.111       .  S
C479        H484   1.110       .  S
C479        H485   1.110       .  S
C482        H486   1.105       .  S
C482        H487   1.110       .  S
C482        H488   1.110       .  S
C489        H496   1.083       .  S
C489        C490   1.408       .  A
C489        C494   1.402       .  A
C490        C491   1.412       .  A
C491        C492   1.404       .  A
C491        C498   1.507       .  S
C492        H497   1.084       .  S
C492        C493   1.407       .  A
C493        C494   1.411       .  A
C494        C495   1.508       .  S
C495        H499   1.111       .  S
C495        H500   1.111       .  S
C495        H501   1.109       .  S
C498        H502   1.110       .  S
C498        H503   1.110       .  S
C498        H504   1.111       .  S
C505        H512   1.083       .  S
C505        C506   1.404       .  A
C505        C510   1.402       .  A
C506        C507   1.416       .  A
C507        C508   1.404       .  A
C507        C514   1.508       .  S
C508        H513   1.084       .  S
C508        C509   1.405       .  A
C509        C510   1.412       .  A
C510        C511   1.503       .  S
C511        H515   1.111       .  S
C511        H516   1.109       .  S
C511        H517   1.108       .  S
C514        H518   1.109       .  S
C514        H519   1.110       .  S
C514        H520   1.111       .  S
C521        H528   1.084       .  S
C521        C522   1.401       .  A
C521        C526   1.406       .  A
C522        C523   1.417       .  A
C523        C524   1.406       .  A
C523        C530   1.507       .  S
C524        H529   1.085       .  S
C524        C525   1.400       .  A
C525        C526   1.417       .  A
C526        C527   1.508       .  S
C527        H531   1.111       .  S
C527        H532   1.110       .  S
C527        H533   1.110       .  S
C530        H534   1.107       .  S
C530        H535   1.110       .  S
C530        H536   1.111       .  S
C537        H544   1.085       .  S
C537        C538   1.401       .  A
C537        C542   1.406       .  A
C538        C539   1.407       .  A
C539        C540   1.403       .  A
C539        C546   1.502       .  S
C540        H545   1.082       .  S
C540        C541   1.409       .  A
C541        C542   1.421       .  A
C542        C543   1.508       .  S
C543        H547   1.111       .  S
C543        H548   1.110       .  S
C543        H549   1.110       .  S
C546        H550   1.111       .  S
C546        H551   1.105       .  S
C546        H552   1.111       .  S
C553        H560   1.084       .  S
C553        C554   1.397   1_455  A
C553        C558   1.407       .  A
C554        C555   1.414       .  A
C555        C556   1.395       .  A
C555        C562   1.509       .  S
C556        H561   1.086       .  S
C556        C557   1.402   1_655  A
C557        C558   1.420       .  A
C558        C559   1.503       .  S
C559        H563   1.111       .  S
C559        H564   1.112       .  S
C559        H565   1.107       .  S
C562        H566   1.109       .  S
C562        H567   1.109       .  S
C562        H568   1.110       .  S
C569        H576   1.083   1_545  S
C569        C570   1.403       .  A
C569        C574   1.409       .  A
C570        C571   1.415       .  A
C571        C572   1.403       .  A
C571        C578   1.509       .  S
C572        H577   1.084       .  S
C572        C573   1.399       .  A
C573        C574   1.413       .  A
C574        C575   1.506   1_655  S
C575        H579   1.111   1_545  S
C575        H580   1.111       .  S
C575        H581   1.110       .  S
C578        H582   1.110       .  S
C578        H583   1.109       .  S
C578        H584   1.111       .  S
C585        H592   1.085       .  S
C585        C586   1.404       .  A
C585        C590   1.409       .  A
C586        C587   1.404       .  A
C587        C588   1.401       .  A
C587        C594   1.508       .  S
C588        H593   1.084       .  S
C588        C589   1.413       .  A
C589        C590   1.418       .  A
C590        C591   1.504       .  S
C591        H595   1.111       .  S
C591        H596   1.108       .  S
C591        H597   1.110       .  S
C594        H598   1.110       .  S
C594        H599   1.110       .  S
C594        H600   1.111       .  S
C601        H608   1.082       .  S
C601        C602   1.411       .  A
C601        C606   1.399       .  A
C602        C603   1.416       .  A
C603        C604   1.401       .  A
C603        C610   1.507       .  S
C604        H609   1.085       .  S
C604        C605   1.403       .  A
C605        C606   1.401       .  A
C606        C607   1.506       .  S
C607        H611   1.111       .  S
C607        H612   1.110   1_545  S
C607        H613   1.110   1_545  S
C610        H614   1.110       .  S
C610        H615   1.110       .  S
C610        H616   1.111       .  S
C617        H624   1.082       .  S
C617        C618   1.406       .  A
C617        C622   1.405       .  A
C618        C619   1.417       .  A
C619        C620   1.406       .  A
C619        C626   1.508       .  S
C620        H625   1.081       .  S
C620        C621   1.407       .  A
C621        C622   1.420       .  A
C622        C623   1.509       .  S
C623        H627   1.111       .  S
C623        H628   1.110       .  S
C623        H629   1.108       .  S
C626        H630   1.111       .  S
C626        H631   1.109       .  S
C626        H632   1.111       .  S
C633        H640   1.084       .  S
C633        C634   1.403       .  A
C633        C638   1.404       .  A
C634        C635   1.412       .  A
C635        C636   1.402       .  A
C635        C642   1.508       .  S
C636        H641   1.084       .  S
C636        C637   1.402       .  A
C637        C638   1.413       .  A
C638        C639   1.508       .  S
C639        H643   1.111       .  S
C639        H644   1.110       .  S
C639        H645   1.109       .  S
C642        H646   1.108       .  S
C642        H647   1.110       .  S
C642        H648   1.111       .  S
C649        H656   1.084   1_455  S
C649        C650   1.406   1_455  A
C649        C654   1.403       .  A
C650        C651   1.412   1_655  A
C651        C652   1.398       .  A
C651        C658   1.507       .  S
C652        H657   1.084   1_565  S
C652        C653   1.401       .  A
C653        C654   1.409       .  A
C654        C655   1.505       .  S
C655        H659   1.110       .  S
C655        H660   1.108       .  S
C655        H661   1.110       .  S
C658        H662   1.108   1_455  S
C658        H663   1.110       .  S
C658        H664   1.111   1_565  S
C665        H672   1.083       .  S
C665        C666   1.413       .  A
C665        C670   1.401       .  A
C666        C667   1.417       .  A
C667        C668   1.402       .  A
C667        C674   1.502       .  S
C668        H673   1.084       .  S
C668        C669   1.402       .  A
C669        C670   1.405       .  A
C670        C671   1.508       .  S
C671        H675   1.111       .  S
C671        H676   1.108       .  S
C671        H677   1.110       .  S
C674        H678   1.109       .  S
C674        H679   1.109       .  S
C674        H680   1.111       .  S
C681        H688   1.085       .  S
C681        C682   1.395       .  A
C681        C686   1.400       .  A
C682        C683   1.413       .  A
C683        C684   1.403       .  A
C683        C690   1.507       .  S
C684        H689   1.084       .  S
C684        C685   1.398       .  A
C685        C686   1.418       .  A
C686        C687   1.510       .  S
C687        H691   1.111       .  S
C687        H692   1.110       .  S
C687        H693   1.109       .  S
C690        H694   1.110       .  S
C690        H695   1.110   1_554  S
C690        H696   1.111       .  S
C697        H704   1.084       .  S
C697        C698   1.403       .  A
C697        C702   1.399       .  A
C698        C699   1.408       .  A
C699        C700   1.401       .  A
C699        C706   1.507   1_554  S
C700        H705   1.085   1_554  S
C700        C701   1.406       .  A
C701        C702   1.408       .  A
C702        C703   1.507       .  S
C703        H707   1.111       .  S
C703        H708   1.109   1_545  S
C703        H709   1.110   1_545  S
C706        H710   1.111       .  S
C706        H711   1.110       .  S
C706        H712   1.111       .  S
C713        H720   1.085       .  S
C713        C714   1.402   1_556  A
C713        C718   1.399       .  A
C714        C715   1.407       .  A
C715        C716   1.404   1_554  A
C715        C722   1.506       .  S
C716        H721   1.084   1_556  S
C716        C717   1.406       .  A
C717        C718   1.412       .  A
C718        C719   1.507       .  S
C719        H723   1.110       .  S
C719        H724   1.111       .  S
C719        H725   1.109       .  S
C722        H726   1.110       .  S
C722        H727   1.111       .  S
C722        H728   1.111       .  S
C729        H736   1.084       .  S
C729        C730   1.406       .  A
C729        C734   1.407       .  A
C730        C731   1.407       .  A
C731        C732   1.397       .  A
C731        C738   1.509       .  S
C732        H737   1.084       .  S
C732        C733   1.409       .  A
C733        C734   1.410       .  A
C734        C735   1.506       .  S
C735        H739   1.111       .  S
C735        H740   1.110       .  S
C735        H741   1.109       .  S
C738        H742   1.111       .  S
C738        H743   1.109       .  S
C738        H744   1.111       .  S
C745        H752   1.085       .  S
C745        C746   1.398       .  A
C745        C750   1.403       .  A
C746        C747   1.416       .  A
C747        C748   1.403       .  A
C747        C754   1.508   1_556  S
C748        H753   1.085       .  S
C748        C749   1.399       .  A
C749        C750   1.419       .  A
C750        C751   1.508       .  S
C751        H755   1.111       .  S
C751        H756   1.109       .  S
C751        H757   1.109       .  S
C754        H758   1.108   1_554  S
C754        H759   1.110       .  S
C754        H760   1.111       .  S
C761        H768   1.084       .  S
C761        C762   1.394       .  A
C761        C766   1.402       .  A
C762        C763   1.419       .  A
C763        C764   1.411   1_455  A
C763        C770   1.507       .  S
C764        H769   1.082       .  S
C764        C765   1.405       .  A
C765        C766   1.430   1_655  A
C766        C767   1.508   1_556  S
C767        H771   1.111       .  S
C767        H772   1.110   1_455  S
C767        H773   1.108   1_455  S
C770        H774   1.111       .  S
C770        H775   1.109       .  S
C770        H776   1.111   1_455  S
C777        H784   1.084       .  S
C777        C778   1.406       .  A
C777        C782   1.400       .  A
C778        C779   1.415       .  A
C779        C780   1.415       .  A
C779        C786   1.505       .  S
C780        H785   1.084       .  S
C780        C781   1.407       .  A
C781        C782   1.413       .  A
C782        C783   1.509       .  S
C783        H787   1.110       .  S
C783        H788   1.108       .  S
C783        H789   1.111       .  S
C786        H790   1.111       .  S
C786        H791   1.109       .  S
C786        H792   1.111       .  S
C793        H800   1.083       .  S
C793        C794   1.405       .  A
C793        C798   1.408       .  A
C794        C795   1.429       .  A
C795        C796   1.409       .  A
C795        C802   1.509       .  S
C796        H801   1.084       .  S
C796        C797   1.396       .  A
C797        C798   1.415       .  A
C798        C799   1.508       .  S
C799        H803   1.111       .  S
C799        H804   1.107       .  S
C799        H805   1.110       .  S
C802        H806   1.110       .  S
C802        H807   1.110       .  S
C802        H808   1.111       .  S
C809        H816   1.083       .  S
C809        C810   1.405       .  A
C809        C814   1.406       .  A
C810        C811   1.422       .  A
C811        C812   1.402       .  A
C811        C818   1.510       .  S
C812        H817   1.082       .  S
C812        C813   1.402       .  A
C813        C814   1.419       .  A
C814        C815   1.509       .  S
C815        H819   1.111       .  S
C815        H820   1.111       .  S
C815        H821   1.109       .  S
C818        H822   1.110       .  S
C818        H823   1.110       .  S
C818        H824   1.111       .  S
C825        H832   1.084       .  S
C825        C826   1.405       .  A
C825        C830   1.404       .  A
C826        C827   1.413       .  A
C827        C828   1.401       .  A
C827        C834   1.507       .  S
C828        H833   1.083       .  S
C828        C829   1.405       .  A
C829        C830   1.415       .  A
C830        C831   1.508       .  S
C831        H835   1.111       .  S
C831        H836   1.109       .  S
C831        H837   1.110       .  S
C834        H838   1.107       .  S
C834        H839   1.109       .  S
C834        H840   1.111       .  S
C841        H848   1.085       .  S
C841        C842   1.399       .  A
C841        C846   1.408       .  A
C842        C843   1.407       .  A
C843        C844   1.390       .  A
C843        C850   1.511       .  S
C844        H849   1.081       .  S
C844        C845   1.406       .  A
C845        C846   1.422       .  A
C846        C847   1.507       .  S
C847        H851   1.111       .  S
C847        H852   1.110       .  S
C847        H853   1.109       .  S
C850        H854   1.104       .  S
C850        H855   1.110       .  S
C850        H856   1.111       .  S
C857        H864   1.084       .  S
C857        C858   1.413       .  A
C857        C862   1.403       .  A
C858        C859   1.417       .  A
C859        C860   1.404       .  A
C859        C866   1.505       .  S
C860        H865   1.083       .  S
C860        C861   1.402       .  A
C861        C862   1.404       .  A
C862        C863   1.506       .  S
C863        H867   1.111       .  S
C863        H868   1.110       .  S
C863        H869   1.110       .  S
C866        H870   1.110       .  S
C866        H871   1.108       .  S
C866        H872   1.111       .  S
C873        H880   1.083       .  S
C873        C874   1.406       .  A
C873        C878   1.405       .  A
C874        C875   1.413       .  A
C875        C876   1.406       .  A
C875        C882   1.507       .  S
C876        H881   1.084       .  S
C876        C877   1.402       .  A
C877        C878   1.410       .  A
C878        C879   1.507       .  S
C879        H883   1.111       .  S
C879        H884   1.110       .  S
C879        H885   1.111       .  S
C882        H886   1.110       .  S
C882        H887   1.110       .  S
C882        H888   1.111       .  S
C889        H896   1.082       .  S
C889        C890   1.403       .  A
C889        C894   1.404       .  A
C890        C891   1.425       .  A
C891        C892   1.407       .  A
C891        C898   1.509       .  S
C892        H897   1.084   1_455  S
C892        C893   1.397   1_455  A
C893        C894   1.415   1_655  A
C894        C895   1.508   1_455  S
C895        H899   1.111   1_655  S
C895        H900   1.110       .  S
C895        H901   1.109       .  S
C898        H902   1.109       .  S
C898        H903   1.111       .  S
C898        H904   1.111       .  S
C905        H912   1.080       .  S
C905        C906   1.414       .  A
C905        C910   1.411       .  A
C906        C907   1.420       .  A
C907        C908   1.410       .  A
C907        C914   1.508       .  S
C908        H913   1.084       .  S
C908        C909   1.406       .  A
C909        C910   1.407       .  A
C910        C911   1.506       .  S
C911        H915   1.111       .  S
C911        H916   1.110       .  S
C911        H917   1.111       .  S
C914        H918   1.110       .  S
C914        H919   1.110       .  S
C914        H920   1.111       .  S
C921        H928   1.083       .  S
C921        C922   1.402       .  A
C921        C926   1.405       .  A
C922        C923   1.424       .  A
C923        C924   1.412       .  A
C923        C930   1.507       .  S
C924        H929   1.084       .  S
C924        C925   1.400       .  A
C925        C926   1.417       .  A
C926        C927   1.507       .  S
C927        H931   1.110       .  S
C927        H932   1.105       .  S
C927        H933   1.110       .  S
C930        H934   1.108       .  S
C930        H935   1.111       .  S
C930        H936   1.111       .  S
