geometry optimzed in LAMMPS
_audit_creation_date              2020-11-30 
_audit_creation_method            'lammps2cif' 
_symmetry_space_group_name_H-M    'P1' 
_symmetry_Int_Tables_number       1 
_symmetry_cell_setting            triclinic 
loop_ 
_symmetry_equiv_pos_as_xyz 
  x,y,z 
_cell_length_a                    58.073232292485784 
_cell_length_b                    57.914019688804814 
_cell_length_c                    57.97566956967413 
_cell_angle_alpha                 89.64140661989552 
_cell_angle_beta                  90.44302990502374 
_cell_angle_gamma                 90.01681160740173 
loop_ 
_atom_site_label 
_atom_site_type_symbol 
_atom_site_fract_x 
_atom_site_fract_y 
_atom_site_fract_z 
_atom_site_charge 
O1          O  0.78880138  0.24805942  0.01439509    -0.88700
C2          C  0.74195848  0.19601592  0.00531506     0.87330
Mg3        Mg  0.78028445  0.27786317  0.03441445     1.58150
O4          O  0.74881576  0.23363131  0.95793661    -0.88430
O5          O  0.79895663  0.24010970  0.97913112    -0.75760
C6          C  0.67532632  0.30903496  0.00111321     0.92380
O7          O  0.75187137  0.22899437  0.05176755    -0.75570
O8          O  0.68746775  0.30767564  0.01939816    -0.83080
Mg9        Mg  0.78184490  0.21494430  0.03064216     1.57960
C10         C  0.69095780  0.25665621  0.92184938     0.92300
O11         O  0.81146085  0.19519281  0.01368726    -0.81340
H12         H  0.76864775  0.24794815  0.93369415    -0.06680
C13         C  0.69373594  0.24428474  0.99792776     0.87240
O14         O  0.76950201  0.29856484  0.00236236    -0.75850
O15         O  0.75971639  0.20719200  0.00166548    -0.88610
O16         O  0.70185666  0.23833875  0.92749787    -0.81420
C17         C  0.73995056  0.17557014  0.93998509     0.92420
C18         C  0.81539543  0.18322886  0.99570398     0.92270
Mg19       Mg  0.71260753  0.28230358  0.96615118     1.57950
O20         O  0.68103378  0.29883752  0.98260440    -0.81350
O21         O  0.74407017  0.26925823  0.94628673    -0.75590
O22         O  0.75666243  0.17898181  0.95378937    -0.81430
O23         O  0.80563382  0.22427864  0.06114051    -0.83140
O24         O  0.73517786  0.31699446  0.04395302    -0.81460
C25         C  0.75435153  0.24995900  0.94534663     0.86710
O26         O  0.73341849  0.29000850  0.99542449    -0.88600
O27         O  0.70588726  0.24878984  0.98109569    -0.88710
O28         O  0.69651996  0.25438955  0.01708097    -0.75760
Mg29       Mg  0.77550340  0.21023311  0.96797374     1.57970
O30         O  0.72318219  0.18953571  0.93832551    -0.83140
H31         H  0.81494350  0.26418646  0.99887226    -0.06860
O32         O  0.74623570  0.26380668  0.03857396    -0.88410
H33         H  0.72819452  0.25093963  0.06490987    -0.06690
H34         H  0.75044482  0.31366168  0.97700437    -0.06860
C35         C  0.74164323  0.24827456  0.05241376     0.86690
C36         C  0.80161976  0.25118977  0.99777131     0.87270
C37         C  0.75084642  0.30146773  0.99119807     0.87320
H38         H  0.68110911  0.23062724  0.99659623    -0.06840
O39         O  0.72398424  0.19863907  0.99290388    -0.75870
Mg40       Mg  0.71790644  0.28530066  0.02884172     1.58000
H41         H  0.74157627  0.18400466  0.01965623    -0.06860
C42         C  0.80683181  0.24284448  0.07288846     0.92310
O43         O  0.77096208  0.30924169  0.05575120    -0.83100
C44         C  0.75307030  0.32197509  0.05568899     0.92370
O45         O  0.80347073  0.18530494  0.97744212    -0.83080
Mg46       Mg  0.71452365  0.22006833  0.96046096     1.58180
O47         O  0.79555654  0.26092427  0.06710582    -0.81420
O48         O  0.69092105  0.27439041  0.93467061    -0.83110
O49         O  0.71792557  0.51385976  0.77563282    -0.88700
C50         C  0.78728371  0.51076950  0.78717242     0.87330
Mg51       Mg  0.69892456  0.48178993  0.77264139     1.58150
O52         O  0.77094931  0.52930381  0.73149761    -0.88430
O53         O  0.72651537  0.54597932  0.75749396    -0.75760
C54         C  0.75150372  0.42340259  0.69182119     0.92380
O55         O  0.74694757  0.47576307  0.80406206    -0.75570
O56         O  0.73860843  0.42071936  0.70920137    -0.83080
Mg57       Mg  0.74004365  0.51522208  0.80523194     1.57960
C58         C  0.80404162  0.50098581  0.67518725     0.92300
O59         O  0.73415963  0.55448011  0.81122175    -0.81340
H60         H  0.75469114  0.55181777  0.71077820    -0.06680
C61         C  0.78866031  0.46115661  0.73644266     0.87240
O62         O  0.69823034  0.48602940  0.73299387    -0.75850
O63         O  0.76901462  0.52093757  0.78287844    -0.88610
O64         O  0.80741668  0.51350676  0.69285782    -0.81420
C65         C  0.82245049  0.55712680  0.75090939     0.92420
C66         C  0.74672927  0.57223847  0.80794995     0.92270
Mg67       Mg  0.75870663  0.47939339  0.69779701     1.57950
O68         O  0.76421024  0.44111608  0.68945852    -0.81350
O69         O  0.75260784  0.51848488  0.70034758    -0.75590
O70         O  0.80482405  0.55974263  0.76360297    -0.81430
O71         O  0.70888019  0.50966085  0.82777459    -0.83140
O72         O  0.69799521  0.43280452  0.73903850    -0.81460
C73         C  0.75949660  0.53405980  0.71407050     0.86710
O74         O  0.73112356  0.47259641  0.72100966    -0.88600
O75         O  0.78159370  0.47898454  0.72702323    -0.88710
O76         O  0.77482053  0.44594443  0.74386072    -0.75760
Mg77       Mg  0.76605641  0.55066933  0.76087331     1.57970
O78         O  0.82378771  0.54102679  0.73624423    -0.83140
H79         H  0.69387481  0.53365992  0.76050590    -0.06860
O80         O  0.73110832  0.46360932  0.77205479    -0.88410
H81         H  0.74753419  0.44221728  0.79385180    -0.06690
H82         H  0.70712111  0.48476500  0.69918959    -0.06860
C83         C  0.74203086  0.45966233  0.79001408     0.86690
C84         C  0.71191519  0.53117176  0.76453515     0.87270
C85         C  0.71204833  0.48113754  0.71686447     0.87320
H86         H  0.80697226  0.45873407  0.73892650    -0.06840
O87         O  0.80085309  0.50460566  0.77123651    -0.75870
Mg88       Mg  0.73556030  0.44215494  0.74166797     1.58000
H89         H  0.79160377  0.50660022  0.80488509    -0.06860
C90         C  0.69362926  0.49391191  0.82784198     0.92310
O91         O  0.68053657  0.44742014  0.76956137    -0.83100
C92         C  0.68223098  0.43217958  0.75396337     0.92370
O93         O  0.76111775  0.57337451  0.79163764    -0.83080
Mg94       Mg  0.80189768  0.50925406  0.73169345     1.58180
O95         O  0.69325626  0.47829444  0.81240920    -0.81420
O96         O  0.78807057  0.48610684  0.67411569    -0.83110
O97         O  0.50839059  0.79426716  0.76192042    -0.88700
C98         C  0.50190528  0.75544463  0.70177596     0.87330
Mg99       Mg  0.52881178  0.78559638  0.79203086     1.58150
O100        O  0.45345473  0.75371827  0.73829894    -0.88430
O101        O  0.47301886  0.80354954  0.75249885    -0.75760
C102        C  0.50170573  0.67650724  0.81115937     0.92380
O103        O  0.54625354  0.75988186  0.73975578    -0.75570
O104        O  0.51881443  0.69002708  0.81299141    -0.83080
Mg105      Mg  0.52490286  0.79098645  0.72875193     1.57960
C106        C  0.42820688  0.68703242  0.75459196     0.92300
O107        O  0.50985039  0.82361707  0.71345521    -0.81340
H108        H  0.42798436  0.76940706  0.75508108    -0.06680
C109        C  0.50146410  0.70188456  0.74670979     0.87240
O110        O  0.49737110  0.77038233  0.81023869    -0.75850
O111        O  0.49698225  0.77000385  0.71630811    -0.88610
O112        O  0.43185824  0.69978509  0.73695704    -0.81420
C113        C  0.43565791  0.75022081  0.67978660     0.92420
C114        C  0.49305510  0.82898597  0.70044181     0.92270
Mg115      Mg  0.46688417  0.71345119  0.78426545     1.57950
O116        O  0.48451539  0.68129402  0.79837923    -0.81350
O117        O  0.44405320  0.74418655  0.77356576    -0.75590
O118        O  0.44636538  0.76872105  0.68559255    -0.81430
O119        O  0.55324759  0.81318944  0.74113768    -0.83140
O120        O  0.54011986  0.73757903  0.82819945    -0.81460
C121        C  0.44112878  0.75619034  0.75537596     0.86710
O122        O  0.49344819  0.73581139  0.79615370    -0.88600
O123        O  0.48333544  0.71225813  0.75071681    -0.88710
O124        O  0.51917897  0.70401575  0.75955061    -0.75760
Mg125      Mg  0.46292997  0.78442126  0.71926724     1.57970
O126        O  0.43792610  0.73146179  0.69130507    -0.83140
H127        H  0.49012604  0.81706249  0.77991408    -0.06860
O128        O  0.53714533  0.75311521  0.77562534    -0.88410
H129        H  0.56240893  0.73612470  0.75989365    -0.06690
H130        H  0.47307830  0.74767202  0.82105533    -0.06860
C131        C  0.54946604  0.74951027  0.75878423     0.86690
C132        C  0.49072750  0.80557273  0.76530571     0.87270
C133        C  0.48747724  0.75089761  0.80977239     0.87320
H134        H  0.50243652  0.69111334  0.73158491    -0.06840
O135        O  0.49162772  0.73619255  0.70123278    -0.75870
Mg136      Mg  0.52788423  0.72252371  0.79365345     1.58000
H137        H  0.51555227  0.75895311  0.68966746    -0.06860
C138        C  0.56483139  0.81684463  0.75936602     0.92310
O139        O  0.54980275  0.77460056  0.82349741    -0.83100
C140        C  0.55073052  0.75564554  0.83486238     0.92370
O141        O  0.47484741  0.81657588  0.69904785    -0.83080
Mg142      Mg  0.46143494  0.72110670  0.72157895     1.58180
O143        O  0.56028884  0.80644634  0.77826403    -0.81420
O144        O  0.43956053  0.68914143  0.77313111    -0.83110
O145        O  0.26497373  0.77629628  0.02939379    -0.88700
C146        C  0.25514458  0.70676224  0.03665050     0.87330
Mg147      Mg  0.23718480  0.80062117  0.02661318     1.58150
O148        O  0.27523849  0.72606766  0.98293782    -0.88430
O149        O  0.29685552  0.76619930  0.01241688    -0.75760
C150        C  0.17023974  0.75667820  0.94418427     0.92380
O151        O  0.22295642  0.75077825  0.05397816    -0.75570
O152        O  0.16941149  0.77132700  0.96048515    -0.83080
Mg153      Mg  0.26264353  0.75221546  0.05748273     1.57960
C154        C  0.24359537  0.69903451  0.92477982     0.92300
O155        O  0.30111987  0.75344309  0.06513197    -0.81340
H156        H  0.29891470  0.74147776  0.96323557    -0.06680
C157        C  0.20554105  0.71635957  0.98699330     0.87240
O158        O  0.24182912  0.80247336  0.98709910    -0.75850
O159        O  0.26630928  0.72464196  0.03341647    -0.88610
O160        O  0.25702169  0.69562769  0.94184155    -0.81420
C161        C  0.29857424  0.67081088  0.99768502     0.92420
C162        C  0.31916806  0.74180441  0.06116958     0.92270
Mg163      Mg  0.22628407  0.74490929  0.94938533     1.57950
O164        O  0.18754082  0.74351656  0.94158238    -0.81350
O165        O  0.26592476  0.74677434  0.95253215    -0.75590
O166        O  0.30185864  0.68682881  0.01236488    -0.81430
O167        O  0.26039561  0.78119943  0.08296498    -0.83140
O168        O  0.18859941  0.81165078  0.99388711    -0.81460
C169        C  0.28086948  0.73804167  0.96616527     0.86710
O170        O  0.22293118  0.77294656  0.97314692    -0.88600
O171        O  0.22409583  0.72130633  0.97790783    -0.88710
O172        O  0.19188329  0.73195138  0.99397577    -0.75760
Mg173      Mg  0.29693120  0.72641910  0.01284659     1.57970
O174        O  0.28254173  0.67194510  0.98269000    -0.83140
H175        H  0.28778941  0.79954571  0.01807406    -0.06860
O176        O  0.21356460  0.77218163  0.02400520    -0.88410
H177        H  0.18995062  0.75638018  0.04346847    -0.06690
H178        H  0.23905595  0.79573086  0.95283042    -0.06860
C179        C  0.20799164  0.75985486  0.04055897     0.86690
C180        C  0.28333577  0.78152278  0.02009682     0.87270
C181        C  0.23458885  0.79056016  0.97017911     0.87320
H182        H  0.20091742  0.69840607  0.98923603    -0.06840
O183        O  0.24786661  0.69468211  0.01989341    -0.75870
Mg184      Mg  0.19223473  0.77191635  0.99335733     1.58000
H185        H  0.25109413  0.70154217  0.05408938    -0.06860
C186        C  0.24689085  0.79832715  0.08309768     0.92310
O187        O  0.20805961  0.82692324  0.02342385    -0.83100
C188        C  0.19285875  0.82834837  0.00758292     0.92370
O189        O  0.32028404  0.72764672  0.04456274    -0.83080
Mg190      Mg  0.25243464  0.69724651  0.98055324     1.58180
O191        O  0.23360351  0.80311887  0.06611248    -0.81420
O192        O  0.22892724  0.71522777  0.92452476    -0.83110
O193        O  0.48469249  0.50369232  0.53601618    -0.88700
C194        C  0.49277418  0.44613657  0.49597498     0.87330
Mg195      Mg  0.46252314  0.53179745  0.52671354     1.58150
O196        O  0.53928255  0.48565359  0.49614046    -0.88430
O197        O  0.52016176  0.49648828  0.54644158    -0.75760
C198        C  0.48935614  0.55624573  0.41947006     0.92380
O199        O  0.44615184  0.47936154  0.50324661    -0.75570
O200        O  0.47169224  0.55636409  0.43230612    -0.83080
Mg201      Mg  0.46938124  0.46982070  0.53391551     1.57960
C202        C  0.56700398  0.50495419  0.43249974     0.92300
O203        O  0.48781439  0.45616134  0.56595184    -0.81340
H204        H  0.56331762  0.50352582  0.51326994    -0.06680
C205        C  0.49354888  0.49123765  0.44234647     0.87240
O206        O  0.49224562  0.55307052  0.51238323    -0.75850
O207        O  0.49703820  0.45994872  0.51153169    -0.88610
O208        O  0.56293910  0.48687919  0.44444610    -0.81420
C209        C  0.55959063  0.42823014  0.49166504     0.92420
C210        C  0.50415013  0.44182046  0.56881740     0.92270
Mg211      Mg  0.52481526  0.53098601  0.45625354     1.57950
O212        O  0.50654139  0.54330986  0.42372535    -0.81350
O213        O  0.54724866  0.52165424  0.48776763    -0.75590
O214        O  0.54689165  0.43243615  0.50898773    -0.81430
O215        O  0.44102282  0.48055559  0.55787957    -0.83140
O216        O  0.44691806  0.56656233  0.47904228    -0.81460
C217        C  0.55065688  0.50336934  0.49950172     0.86710
O218        O  0.49688319  0.54016000  0.47759907    -0.88600
O219        O  0.51064588  0.49647489  0.45397588    -0.88710
O220        O  0.47471594  0.50217402  0.44405060    -0.75760
Mg221      Mg  0.53110993  0.46464311  0.52562565     1.57970
O222        O  0.55839114  0.44024755  0.47324140    -0.83140
H223        H  0.50101664  0.52232702  0.56002302    -0.06860
O224        O  0.45550693  0.51468459  0.49406123    -0.88410
H225        H  0.42990628  0.49789254  0.47817472    -0.06690
H226        H  0.51501185  0.56681069  0.48979847    -0.06860
C227        C  0.44311753  0.49758864  0.49141368     0.86690
C228        C  0.50170635  0.50806686  0.54810227     0.87270
C229        C  0.50174027  0.55408375  0.49285530     0.87320
H230        H  0.49447192  0.47661322  0.43089250    -0.06840
O231        O  0.50357772  0.44687564  0.47705692    -0.75870
Mg232      Mg  0.46304065  0.53443326  0.46357797     1.58000
H233        H  0.47935370  0.43342334  0.49836816    -0.06860
C234        C  0.42899810  0.49878901  0.55961097     0.92310
O235        O  0.43902711  0.56049875  0.51611804    -0.83100
C236        C  0.43645647  0.57187807  0.49745007     0.92370
O237        O  0.52154591  0.44154387  0.55563174    -0.83080
Mg238      Mg  0.53346705  0.46895360  0.46319199     1.58180
O239        O  0.43252210  0.51644086  0.54697227    -0.81420
O240        O  0.55442694  0.52274700  0.43339261    -0.83110
O241        O  0.22618336  0.98117925  0.71819703    -0.88700
C242        C  0.23252284  0.96726261  0.78699711     0.87330
Mg243      Mg  0.25639950  0.98504827  0.69680790     1.58150
O244        O  0.21281932  0.02284139  0.77194138    -0.88430
O245        O  0.19360450  0.99704346  0.72819063    -0.75760
C246        C  0.31894985  0.06111921  0.75317595     0.92380
O247        O  0.26562773  0.95185895  0.74416842    -0.75570
O248        O  0.32081016  0.04456194  0.73898824    -0.83080
Mg249      Mg  0.22610206  0.95072555  0.73927713     1.57960
C250        C  0.24253359  0.07900421  0.80410469     0.92300
O251        O  0.18697397  0.94455724  0.73455169    -0.81340
H252        H  0.19049632  0.04316008  0.75498627    -0.06680
C253        C  0.28121660  0.01643253  0.78661056     0.87240
O254        O  0.25290412  0.02448431  0.69746264    -0.75850
O255        O  0.22181382  0.97202360  0.76909372    -0.88610
O256        O  0.23012570  0.06133857  0.80798712    -0.81420
C257        C  0.18865250  0.00273016  0.82464755     0.92420
C258        C  0.17014860  0.94588699  0.74843492     0.92270
Mg259      Mg  0.26290389  0.05649652  0.75846009     1.57950
O260        O  0.30099813  0.06428379  0.76502384    -0.81350
O261        O  0.22380393  0.05348267  0.75257756    -0.75590
O262        O  0.18523041  0.98979617  0.80722959    -0.81430
O263        O  0.23007613  0.92901035  0.70767688    -0.83140
O264        O  0.30794062  0.01645132  0.69403938    -0.81460
C265        C  0.20820651  0.03997090  0.75992506     0.86710
O266        O  0.26909721  0.03445443  0.72996744    -0.88600
O267        O  0.26361463  0.02688132  0.78058728    -0.88710
O268        O  0.29556922  0.00913034  0.77197949    -0.75760
Mg269      Mg  0.19156535  0.99300030  0.76797213     1.57970
O270        O  0.20436504  0.01787663  0.82507102    -0.83140
H271        H  0.20459491  0.99527366  0.69501556    -0.06860
O272        O  0.27722171  0.98370293  0.72739306    -0.88410
H273        H  0.29921337  0.96152611  0.74234428    -0.06690
H274        H  0.25665152  0.05778175  0.70756297    -0.06860
C275        C  0.28154001  0.96559879  0.73796703     0.86690
C276        C  0.20810949  0.99124142  0.71293119     0.87270
C277        C  0.25969786  0.03976901  0.71152396     0.87320
H278        H  0.28411561  0.01283567  0.80472182    -0.06840
O279        O  0.23914515  0.98292191  0.80080834    -0.75870
Mg280      Mg  0.29898669  0.01311919  0.73279444     1.58000
H281        H  0.23668380  0.94943927  0.79079460    -0.06860
C282        C  0.24526002  0.92978847  0.69209405     0.92310
O283        O  0.28861993  0.98900359  0.67531199    -0.83100
C284        C  0.30539568  0.00306353  0.67684565     0.92370
O285        O  0.16937225  0.96121923  0.76396399    -0.83080
Mg286      Mg  0.23450611  0.02250244  0.80203502     1.58180
O287        O  0.25978661  0.94615986  0.69078489    -0.81420
O288        O  0.25678859  0.07983533  0.78775929    -0.83110
O289        O  0.77727930  0.72935649  0.47805596    -0.88700
C290        C  0.70969396  0.71276644  0.48681795     0.87330
Mg291      Mg  0.80048873  0.73398343  0.50638958     1.58150
O292        O  0.72082545  0.76993101  0.46950020    -0.88430
O293        O  0.76479375  0.74718166  0.44705587    -0.75760
C294        C  0.74834715  0.80648543  0.57463876     0.92380
O295        O  0.75445212  0.70006967  0.51906434    -0.75570
O296        O  0.76487706  0.79218277  0.57435449    -0.83080
Mg297      Mg  0.75699342  0.69856732  0.47940434     1.57960
C298        C  0.68602704  0.82222917  0.50381568     0.92300
O299        O  0.75950809  0.69269892  0.44037475    -0.81340
H300        H  0.73224324  0.79308922  0.44653105    -0.06680
C301        C  0.71243766  0.76038698  0.53909674     0.87240
O302        O  0.79713684  0.77356805  0.50252598    -0.75850
O303        O  0.72681681  0.71915651  0.47602027    -0.88610
O304        O  0.68359413  0.80505647  0.49047480    -0.81420
C305        C  0.66901686  0.74885742  0.44519035     0.92420
C306        C  0.74616152  0.69567740  0.42309700     0.92270
Mg307      Mg  0.73505822  0.80244529  0.51971457     1.57950
O308        O  0.73303295  0.80691674  0.55886252    -0.81350
O309        O  0.73667107  0.80250753  0.47997564    -0.75590
O310        O  0.68658907  0.73640992  0.44119847    -0.81430
O311        O  0.78851702  0.67646044  0.48298596    -0.83140
O312        O  0.80769460  0.76676120  0.55487443    -0.81460
C313        C  0.72981007  0.78862623  0.46448281     0.86710
O314        O  0.76595542  0.78230230  0.52147636    -0.88600
O315        O  0.71570725  0.77102037  0.52086471    -0.88710
O316        O  0.72908988  0.75493088  0.55243623    -0.75760
Mg317      Mg  0.72557893  0.74148512  0.44654649     1.57970
O318        O  0.66815858  0.76260768  0.46212039    -0.83140
H319        H  0.79859560  0.74509611  0.45605431    -0.06860
O320        O  0.77203363  0.73186820  0.52940969    -0.88410
H321        H  0.75860968  0.70988728  0.55241539    -0.06690
H322        H  0.78531164  0.80638070  0.50606860    -0.06860
C323        C  0.76180318  0.71382424  0.53446979     0.86690
C324        C  0.78106899  0.74048728  0.46023589     0.87270
C325        C  0.78283096  0.78828921  0.51003110     0.87320
H326        H  0.69510152  0.75549765  0.54372364    -0.06840
O327        O  0.69553928  0.72719525  0.49498393    -0.75870
Mg328      Mg  0.76849577  0.76102959  0.55151020     1.58000
H329        H  0.70702145  0.69453060  0.48987132    -0.06860
C330        C  0.80475491  0.67777364  0.49765970     0.92310
O331        O  0.82503192  0.73840183  0.53613671    -0.83100
C332        C  0.82486416  0.75349048  0.55186225     0.92370
O333        O  0.73077650  0.71128609  0.42266689    -0.83080
Mg334      Mg  0.69221114  0.76664074  0.49244698     1.58180
O335        O  0.80785624  0.69545808  0.51014114    -0.81420
O336        O  0.70254344  0.82361898  0.51816244    -0.83110
O337        O  0.03816533  0.76951145  0.24925982    -0.88700
C338        C  0.99467103  0.76201055  0.30356983     0.87330
Mg339      Mg  0.02811495  0.78837254  0.21884226     1.58150
O340        O  0.99982258  0.71310843  0.26816069    -0.88430
O341        O  0.04915111  0.73450333  0.25819057    -0.75760
C342        C  0.92415075  0.75275026  0.18998973     0.92380
O343        O  0.00094933  0.80570766  0.26818445    -0.75570
O344        O  0.93566453  0.77139898  0.19054817    -0.83080
Mg345      Mg  0.03295964  0.78663824  0.28182976     1.57960
C346        C  0.94091025  0.67752874  0.24749434     0.92300
O347        O  0.06570075  0.77116171  0.30034483    -0.81340
H348        H  0.01940125  0.68857990  0.25421414    -0.06680
C349        C  0.94348624  0.75289509  0.25547597     0.87240
O350        O  0.01816200  0.75540091  0.19991728    -0.75850
O351        O  0.01230029  0.75768716  0.29257676    -0.88610
O352        O  0.95137462  0.68353792  0.26596274    -0.81420
C353        C  0.99282095  0.69725149  0.32710269     0.92420
C354        C  0.07070328  0.75300457  0.31209960     0.92270
Mg355      Mg  0.96252732  0.72012190  0.21912189     1.57950
O356        O  0.93026939  0.73490246  0.20142747    -0.81350
O357        O  0.99444013  0.70104868  0.23287622    -0.75590
O358        O  0.01047882  0.70946971  0.32235515    -0.81430
O359        O  0.05381412  0.81760820  0.26923728    -0.83140
O360        O  0.98204126  0.79680016  0.17993621    -0.81460
C361        C  0.00500471  0.70025411  0.25209842     0.86710
O362        O  0.98233456  0.74903205  0.20924287    -0.88600
O363        O  0.95645537  0.73643181  0.25198642    -0.88710
O364        O  0.94509037  0.77149907  0.24400305    -0.75760
Mg365      Mg  0.02785198  0.72399070  0.28969476     1.57970
O366        O  0.97529800  0.69658504  0.31384334    -0.83140
H367        H  0.06349625  0.75352284  0.23254457    -0.06860
O368        O  0.99434817  0.79273208  0.23342928    -0.88410
H369        H  0.97542446  0.81781473  0.24730740    -0.06690
H370        H  0.99884868  0.72965699  0.18627095    -0.06860
C371        C  0.98976098  0.80604683  0.24930020     0.86690
C372        C  0.05096892  0.75281170  0.24622877     0.87270
C373        C  0.99947671  0.74430847  0.19772393     0.87320
H374        H  0.93109601  0.75174605  0.26925900    -0.06840
O375        O  0.97641145  0.75009503  0.30130613    -0.75870
Mg376      Mg  0.96588472  0.78227918  0.21244653     1.58000
H377        H  0.99458772  0.77672680  0.31495099    -0.06860
C378        C  0.05304601  0.82906568  0.25032044     0.92310
O379        O  0.01790339  0.80825401  0.18710932    -0.83100
C380        C  0.99987381  0.80829036  0.17458247     0.92370
O381        O  0.05798840  0.73510125  0.31169278    -0.83080
Mg382      Mg  0.96577841  0.71706925  0.28198323     1.58180
O383        O  0.04152251  0.82227640  0.23295929    -0.81420
O384        O  0.94177056  0.68952732  0.22914966    -0.83110
O385        O  0.22804850  0.27624043  0.52434732    -0.88700
C386        C  0.23842718  0.28870375  0.45583169     0.87330
Mg387      Mg  0.25624485  0.27181713  0.54832188     1.58150
O388        O  0.21809765  0.23362283  0.47106114    -0.88430
O389        O  0.19590233  0.26050699  0.51249253    -0.75760
C390        C  0.32487346  0.19753435  0.49767698     0.92380
O391        O  0.26951146  0.30454853  0.50119365    -0.75570
O392        O  0.32551435  0.21384822  0.51221430    -0.83080
Mg393      Mg  0.22996066  0.30641380  0.50286790     1.57960
C394        C  0.24884882  0.17608919  0.44216076     0.92300
O395        O  0.19107854  0.31332193  0.50463926    -0.81340
H396        H  0.19521373  0.21314577  0.48673894    -0.06680
C397        C  0.28718781  0.24023478  0.46113348     0.87240
O398        O  0.25253477  0.23246262  0.54707780    -0.75850
O399        O  0.22689154  0.28450336  0.47320239    -0.88610
O400        O  0.23647163  0.19373661  0.43787049    -0.81420
C401        C  0.19594044  0.25177214  0.41634487     0.92420
C402        C  0.17398859  0.31124848  0.49096438     0.92270
Mg403      Mg  0.26808091  0.20000353  0.48804907     1.57950
O404        O  0.30713194  0.19347555  0.48529541    -0.81350
O405        O  0.22845456  0.20287220  0.49088459    -0.75590
O406        O  0.19260123  0.26596110  0.43278070    -0.81430
O407        O  0.23258821  0.32905861  0.53417249    -0.83140
O408        O  0.30754899  0.24086376  0.55576277    -0.81460
C409        C  0.21309148  0.21646241  0.48284048     0.86710
O410        O  0.27212282  0.22216331  0.51681512    -0.88600
O411        O  0.26944189  0.22941007  0.46573870    -0.88710
O412        O  0.30052386  0.24773384  0.47686760    -0.75760
Mg413      Mg  0.19642713  0.26373916  0.47272018     1.57970
O414        O  0.21154668  0.23651101  0.41736896    -0.83140
H415        H  0.20492972  0.26325832  0.54631492    -0.06860
O416        O  0.27934509  0.27299478  0.51976178    -0.88410
H417        H  0.30267208  0.29459089  0.50643948    -0.06690
H418        H  0.25734030  0.19909454  0.53780506    -0.06860
C419        C  0.28467398  0.29084044  0.50927884     0.86690
C420        C  0.20953190  0.26666317  0.52858249     0.87270
C421        C  0.26085225  0.21706604  0.53409768     0.87320
H422        H  0.29115377  0.24390955  0.44329483    -0.06840
O423        O  0.24552933  0.27263702  0.44280876    -0.75870
Mg424      Mg  0.30176058  0.24411814  0.51640904     1.58000
H425        H  0.24283401  0.30640127  0.45178929    -0.06860
C426        C  0.24653930  0.32781918  0.55106378     0.92310
O427        O  0.28594856  0.26698404  0.57355821    -0.83100
C428        C  0.30263484  0.25276253  0.57346840     0.92370
O429        O  0.17354628  0.29594373  0.47529233    -0.83080
Mg430      Mg  0.24102642  0.23294400  0.44236600     1.58180
O431        O  0.25963417  0.31050694  0.55437742    -0.81420
O432        O  0.26370932  0.17582397  0.45829071    -0.83110
O433        O  0.26458661  0.47201865  0.22310395    -0.88700
C434        C  0.25113628  0.54050574  0.21113715     0.87330
Mg435      Mg  0.23741130  0.44767583  0.22918389     1.58150
O436        O  0.27503632  0.52604547  0.26510706    -0.88430
O437        O  0.29694012  0.48492541  0.23758673    -0.75760
C438        C  0.17225496  0.49862058  0.30686086     0.92380
O439        O  0.22033451  0.49386641  0.19662544    -0.75570
O440        O  0.17115372  0.48360598  0.29098187    -0.83080
Mg441      Mg  0.25970822  0.49352072  0.19315969     1.57960
C442        C  0.24684606  0.55638966  0.32313228     0.92300
O443        O  0.29779902  0.49351962  0.18437504    -0.81340
H444        H  0.29994561  0.51195519  0.28463900    -0.06680
C445        C  0.20607859  0.53525048  0.26151161     0.87240
O446        O  0.24318450  0.44976371  0.26837358    -0.75850
O447        O  0.26286286  0.52310353  0.21511645    -0.88610
O448        O  0.25912110  0.55987015  0.30539565    -0.81420
C449        C  0.29614963  0.57985101  0.24511513     0.92420
C450        C  0.31420249  0.50798147  0.18561926     0.92270
Mg451      Mg  0.22816072  0.50938097  0.30124564     1.57950
O452        O  0.18970325  0.51161105  0.30955920    -0.81350
O453        O  0.26763148  0.50718542  0.29702668    -0.75590
O454        O  0.29685876  0.56397248  0.23009590    -0.81430
O455        O  0.25717612  0.46204028  0.17052540    -0.83140
O456        O  0.18857276  0.43992964  0.26321259    -0.81460
C457        C  0.28173070  0.51512658  0.28228517     0.86710
O458        O  0.22393355  0.48006847  0.27954355    -0.88600
O459        O  0.22443593  0.53136582  0.27175379    -0.88710
O460        O  0.19294684  0.51897978  0.25491120    -0.75760
Mg461      Mg  0.29462897  0.52459649  0.23399754     1.57970
O462        O  0.28189038  0.57921334  0.26153885    -0.83140
H463        H  0.28910119  0.45081119  0.23522537    -0.06860
O464        O  0.21356907  0.47588696  0.22906440    -0.88410
H465        H  0.18817264  0.48747982  0.20858627    -0.06690
H466        H  0.24069510  0.45950625  0.30183500    -0.06860
C467        C  0.20650740  0.48556411  0.21134672     0.86690
C468        C  0.28368624  0.46839367  0.23194310     0.87270
C469        C  0.23586269  0.46296126  0.28410169     0.87320
H470        H  0.20134690  0.55290413  0.25758781    -0.06840
O471        O  0.24526461  0.55405995  0.22724712    -0.75870
Mg472      Mg  0.19303983  0.47940467  0.25926764     1.58000
H473        H  0.24562873  0.54419293  0.19364497    -0.06860
C474        C  0.24439535  0.44436721  0.17242957     0.92310
O475        O  0.20835788  0.42268519  0.23536472    -0.83100
C476        C  0.19238168  0.42268489  0.25022051     0.92370
O477        O  0.31513628  0.52326877  0.20115193    -0.83080
Mg478      Mg  0.25229978  0.55486408  0.26660722     1.58180
O479        O  0.23267146  0.44029452  0.19047377    -0.81420
O480        O  0.23246008  0.53997597  0.32428288    -0.83110
O481        O  0.47201299  0.22092234  0.22868784    -0.88700
C482        C  0.45861142  0.28948933  0.23468870     0.87330
Mg483      Mg  0.47557277  0.19937162  0.25839279     1.58150
O484        O  0.51508543  0.27586156  0.21797622    -0.88430
O485        O  0.49066856  0.23140575  0.19770210    -0.75760
C486        C  0.55134957  0.25114403  0.32330776     0.92380
O487        O  0.44348878  0.24701923  0.26811956    -0.75570
O488        O  0.53601129  0.23561333  0.32371508    -0.83080
Mg489      Mg  0.44220786  0.24245612  0.22858357     1.57960
C490        C  0.56860856  0.31137361  0.25110539     0.92300
O491        O  0.43664973  0.23800687  0.18964529    -0.81340
H492        H  0.53748642  0.26313387  0.19529785    -0.06680
C493        C  0.50679355  0.28825678  0.28671661     0.87240
O494        O  0.51524602  0.20077892  0.25463098    -0.75850
O495        O  0.46412467  0.27169068  0.22449657    -0.88610
O496        O  0.55176496  0.31340579  0.23708710    -0.81420
C497        C  0.49490328  0.32730182  0.19172866     0.92420
C498        C  0.43977193  0.25113860  0.17229466     0.92270
Mg499      Mg  0.54747581  0.26291936  0.26839904     1.57950
O500        O  0.55217449  0.26619757  0.30731022    -0.81350
O501        O  0.54735502  0.25965459  0.22883715    -0.75590
O502        O  0.48224873  0.30969736  0.18833897    -0.81430
O503        O  0.41905889  0.21173370  0.23289817    -0.83140
O504        O  0.50875064  0.19380052  0.30665392    -0.81460
C505        C  0.53341715  0.26628534  0.21316969     0.86710
O506        O  0.52572704  0.23292668  0.27128696    -0.88600
O507        O  0.51706444  0.28357469  0.26875970    -0.88710
O508        O  0.50041802  0.27249795  0.30062961    -0.75760
Mg509      Mg  0.48630762  0.27087395  0.19530081     1.57970
O510        O  0.50901806  0.32855734  0.20847148    -0.83140
H511        H  0.48729067  0.19803941  0.20812913    -0.06860
O512        O  0.47501795  0.22948956  0.27934777    -0.88410
H513        H  0.45364797  0.24444596  0.30166476    -0.06690
H514        H  0.54854642  0.21141911  0.25718626    -0.06860
C515        C  0.45729908  0.24030555  0.28390728     0.86690
C516        C  0.48323659  0.21593789  0.21138817     0.87270
C517        C  0.53071100  0.21500195  0.26099414     0.87320
H518        H  0.50293690  0.30608140  0.29054222    -0.06840
O519        O  0.47365726  0.30350814  0.24220944    -0.75870
Mg520      Mg  0.50458148  0.23282094  0.30129520     1.58000
H521        H  0.44059923  0.29291375  0.23776887    -0.06860
C522        C  0.41957237  0.19621577  0.24841656     0.92310
O523        O  0.47898234  0.17670909  0.28973162    -0.83100
C524        C  0.49463939  0.17711295  0.30505031     0.92370
O525        O  0.45592777  0.26588815  0.17163245    -0.83080
Mg526      Mg  0.51305116  0.30576048  0.23949394     1.58180
O527        O  0.43663737  0.19382380  0.26209333    -0.81420
O528        O  0.56969199  0.29505218  0.26580756    -0.83110
O529        O  0.95398441  0.25579215  0.73652098    -0.88700
C530        C  0.99794363  0.20212167  0.74574107     0.87330
Mg531      Mg  0.96360588  0.28529979  0.71680054     1.58150
O532        O  0.99194088  0.23803217  0.79395334    -0.88430
O533        O  0.94282174  0.24836185  0.77164045    -0.75760
C534        C  0.06705806  0.31649064  0.75513979     0.92380
O535        O  0.99215309  0.23594548  0.70152933    -0.75570
O536        O  0.05471728  0.31507062  0.73697684    -0.83080
Mg537      Mg  0.96031302  0.22269065  0.72073867     1.57960
C538        C  0.05010298  0.25573576  0.83130699     0.92300
O539        O  0.92826315  0.20533459  0.73561762    -0.81340
H540        H  0.97245471  0.25172195  0.81861215    -0.06680
C541        C  0.04887607  0.25032224  0.75544229     0.87240
O542        O  0.97361675  0.30532942  0.74956937    -0.75850
O543        O  0.98045516  0.21339481  0.75003057    -0.88610
O544        O  0.03915782  0.23798019  0.82456738    -0.81420
C545        C  0.99809587  0.17906026  0.80962814     0.92420
C546        C  0.92281480  0.19372909  0.75348242     0.92270
Mg547      Mg  0.02955578  0.28651595  0.78821447     1.57950
O548        O  0.06211498  0.30530427  0.77354886    -0.81350
O549        O  0.99759711  0.27293344  0.80680186    -0.75590
O550        O  0.98019830  0.18464282  0.79819269    -0.81430
O551        O  0.93910176  0.23235862  0.68985712    -0.83140
O552        O  0.00852654  0.32505311  0.70962022    -0.81460
C553        C  0.98686597  0.25387633  0.80710150     0.86710
O554        O  0.00923160  0.29632228  0.75847601    -0.88600
O555        O  0.03585448  0.25372643  0.77179059    -0.88710
O556        O  0.04691414  0.26158348  0.73672639    -0.75760
Mg557      Mg  0.96390088  0.21694363  0.78310817     1.57970
O558        O  0.01594748  0.19170157  0.81010073    -0.83140
H559        H  0.92855532  0.27332779  0.75144786    -0.06860
O560        O  0.99766806  0.27101391  0.71398131    -0.88410
H561        H  0.01722199  0.25713362  0.68945712    -0.06690
H562        H  0.99120937  0.31936888  0.77642464    -0.06860
C563        C  0.00284590  0.25503554  0.70102324     0.86690
C564        C  0.94105802  0.25955397  0.75286462     0.87270
C565        C  0.99157662  0.30763254  0.76200454     0.87320
H566        H  0.06162655  0.23677141  0.75678358    -0.06840
O567        O  0.01637416  0.20448037  0.75735163    -0.75870
Mg568      Mg  0.02540241  0.29272290  0.72528112     1.58000
H569        H  0.99782586  0.19067429  0.73108009    -0.06860
C570        C  0.93850939  0.25062576  0.67765713     0.92310
O571        O  0.97378593  0.31631391  0.69567278    -0.83100
C572        C  0.99135986  0.32937405  0.69647735     0.92370
O573        O  0.93443584  0.19470571  0.77206900    -0.83080
Mg574      Mg  0.02592025  0.22350147  0.79050486     1.58180
O575        O  0.94942892  0.26885451  0.68343881    -0.81420
O576        O  0.05009828  0.27458573  0.81971960    -0.83110
O577        O  0.03646197  0.48569524  0.99598536    -0.88700
C578        C  0.99170277  0.49121085  0.94165103     0.87330
Mg579      Mg  0.02766986  0.46621385  0.02618606     1.58150
O580        O  0.99642980  0.54181176  0.97427537    -0.88430
O581        O  0.04548195  0.52124640  0.98657615    -0.75760
C582        C  0.92432985  0.50330045  0.05555265     0.92380
O583        O  0.99952040  0.44816521  0.97706339    -0.75570
O584        O  0.93665327  0.48519362  0.05434359    -0.83080
Mg585      Mg  0.03068261  0.46828375  0.96346824     1.57960
C586        C  0.93876235  0.57799329  0.99334228     0.92300
O587        O  0.06246868  0.48396363  0.94615169    -0.81340
H588        H  0.01619105  0.56683545  0.98732934    -0.06680
C589        C  0.94148316  0.50136651  0.98886029     0.87240
O590        O  0.01703018  0.49900456  0.04544173    -0.75850
O591        O  0.00917567  0.49640091  0.95277241    -0.88610
O592        O  0.94737505  0.57108016  0.97439910    -0.81420
C593        C  0.98964624  0.55374817  0.91430896     0.92420
C594        C  0.06743378  0.50152347  0.93383904     0.92270
Mg595      Mg  0.96112442  0.53551043  0.02408706     1.57950
O596        O  0.92886559  0.52138481  0.04366321    -0.81350
O597        O  0.99251137  0.55414738  0.00955696    -0.75590
O598        O  0.00732622  0.54204717  0.92018417    -0.81430
O599        O  0.05301117  0.43842853  0.97459606    -0.83140
O600        O  0.98245641  0.45751183  0.06534480    -0.81460
C601        C  0.00203855  0.55500560  0.98998566     0.86710
O602        O  0.98161740  0.50638219  0.03480527    -0.88600
O603        O  0.95374360  0.51856125  0.99160159    -0.88710
O604        O  0.94422794  0.48320265  0.00088136    -0.75760
Mg605      Mg  0.02447042  0.53024273  0.95401171     1.57970
O606        O  0.97203733  0.55512969  0.92722985    -0.83140
H607        H  0.06036348  0.50369365  0.01316132    -0.06860
O608        O  0.99368775  0.46146828  0.01165297    -0.88410
H609        H  0.97492838  0.43570495  0.99848845    -0.06690
H610        H  0.99819559  0.52540137  0.05830738    -0.06860
C611        C  0.98890612  0.44779679  0.99609330     0.86690
C612        C  0.04812404  0.50329907  0.99902263     0.87270
C613        C  0.99868047  0.51077481  0.04682467     0.87320
H614        H  0.92868555  0.50147259  0.97521795    -0.06840
O615        O  0.97322607  0.50283872  0.94300330    -0.75870
Mg616      Mg  0.96572288  0.47286126  0.03251333     1.58000
H617        H  0.99194086  0.47593927  0.93102553    -0.06860
C618        C  0.05388202  0.42682002  0.99325974     0.92310
O619        O  0.01800234  0.44546898  0.05771311    -0.83100
C620        C  0.00017690  0.44542032  0.07032495     0.92370
O621        O  0.05466913  0.51928089  0.93307291    -0.83080
Mg622      Mg  0.96237441  0.53665412  0.96038029     1.58180
O623        O  0.04280407  0.43287832  0.01112948    -0.81420
O624        O  0.94096224  0.56649652  0.01202340    -0.83110
O625        O  0.45902380  0.99810700  0.01038950    -0.88700
C626        C  0.50076732  0.05227815  0.99648266     0.87330
Mg627      Mg  0.47045415  0.97056969  0.03259125     1.58150
O628        O  0.49335272  0.01205000  0.95172660    -0.88430
O629        O  0.44472517  0.00401283  0.97598858    -0.75760
C630        C  0.57426977  0.94062229  0.99505278     0.92380
O631        O  0.49624723  0.02213898  0.04401017    -0.75570
O632        O  0.56333365  0.94338234  0.01387221    -0.83080
Mg633      Mg  0.46344868  0.03240340  0.02390032     1.57960
C634        C  0.55145871  0.99209826  0.91472002     0.92300
O635        O  0.43021300  0.04713095  0.00750640    -0.81340
H636        H  0.47285241  0.99430501  0.93040076    -0.06680
C637        C  0.55254248  0.00501211  0.98951791     0.87240
O638        O  0.48049723  0.94798482  0.00204977    -0.75850
O639        O  0.48302650  0.04078920  0.99363899    -0.88610
O640        O  0.53907240  0.00941669  0.91971298    -0.81420
C641        C  0.49987171  0.06902890  0.92954615     0.92420
C642        C  0.42446414  0.05924528  0.98990736     0.92270
Mg643      Mg  0.53366767  0.96513968  0.96119280     1.57950
O644        O  0.56753324  0.94977308  0.97608076    -0.81350
O645        O  0.49991378  0.97590342  0.94307376    -0.75590
O646        O  0.48220653  0.06449955  0.94171611    -0.81430
O647        O  0.44230928  0.02313263  0.05561330    -0.83140
O648        O  0.51897532  0.93412735  0.04679922    -0.81460
C649        C  0.48815401  0.99431804  0.94114023     0.86710
O650        O  0.51572987  0.95703162  0.99266360    -0.88600
O651        O  0.53872624  0.99935030  0.97431475    -0.88710
O652        O  0.55217929  0.99579268  0.00936656    -0.75760
Mg653      Mg  0.46546103  0.03443842  0.96110873     1.57970
O654        O  0.51774775  0.05659838  0.93010556    -0.83140
H655        H  0.43256426  0.97966627  0.99812777    -0.06860
O656        O  0.50408404  0.98653166  0.03458618    -0.88410
H657        H  0.52293499  0.00387738  0.05769817    -0.06690
H658        H  0.49848253  0.93150637  0.97725626    -0.06860
C659        C  0.50830992  0.00394808  0.04604667     0.86690
C660        C  0.44483841  0.99339163  0.99518986     0.87270
C661        C  0.49851688  0.94475439  0.99031185     0.87320
H662        H  0.56455999  0.01886440  0.98613503    -0.06840
O663        O  0.51864501  0.04904122  0.98441714    -0.75870
Mg664      Mg  0.53306251  0.96515586  0.02510090     1.58000
H665        H  0.50133736  0.06489989  0.01013721    -0.06860
C666        C  0.44255403  0.00543685  0.06877028     0.92310
O667        O  0.48275926  0.94229084  0.05609208    -0.83100
C668        C  0.50088731  0.93018994  0.05860255     0.92370
O669        O  0.43596091  0.05859244  0.97127381    -0.83080
Mg670      Mg  0.52755311  0.02704621  0.95280889     1.58180
O671        O  0.45507004  0.98792570  0.06453584    -0.81420
O672        O  0.55282962  0.97452345  0.92805406    -0.83110
O673        O  0.70413372  0.98800305  0.24381360    -0.88700
C674        C  0.74772975  0.99824660  0.29816065     0.87330
Mg675      Mg  0.71362429  0.96893452  0.21414504     1.58150
O676        O  0.74085711  0.04590707  0.26041465    -0.88430
O677        O  0.69175014  0.02269104  0.25086566    -0.75760
C678        C  0.81746224  0.00573189  0.18385217     0.92380
O679        O  0.74298512  0.95325876  0.26400897    -0.75570
O680        O  0.80500346  0.98776851  0.18553354    -0.83080
Mg681      Mg  0.71099335  0.97195609  0.27698843     1.57960
C682        C  0.80117434  0.08220740  0.24345288     0.92300
O683        O  0.67884999  0.98544328  0.29487098    -0.81340
H684        H  0.72169279  0.07048011  0.24536647    -0.06680
C685        C  0.79840710  0.00675562  0.25024243     0.87240
O686        O  0.72375885  0.00194262  0.19449942    -0.75850
O687        O  0.73034535  0.00187343  0.28631538    -0.88610
O688        O  0.78848751  0.07697614  0.26048088    -0.81420
C689        C  0.74556000  0.06410965  0.31831956     0.92420
C690        C  0.67329768  0.00325654  0.30624463     0.92270
Mg691      Mg  0.78008786  0.03948083  0.21299537     1.57950
O692        O  0.81275737  0.02423891  0.19481714    -0.81350
O693        O  0.74781193  0.05859038  0.22561714    -0.75590
O694        O  0.72794723  0.05189312  0.31386616    -0.81430
O695        O  0.69027256  0.94117837  0.26680198    -0.83140
O696        O  0.75917044  0.96043206  0.17522017    -0.81460
C697        C  0.73622078  0.05890306  0.24408471     0.86710
O698        O  0.75962612  0.01003691  0.20312652    -0.88600
O699        O  0.78558859  0.02332180  0.24625931    -0.88710
O700        O  0.79665974  0.98810647  0.23902112    -0.75760
Mg701      Mg  0.71282118  0.03471624  0.28186219     1.57970
O702        O  0.76333150  0.06375816  0.30568411    -0.83140
H703        H  0.67776659  0.00202035  0.22639919    -0.06860
O704        O  0.74775319  0.96540617  0.22868319    -0.88410
H705        H  0.76772688  0.94099053  0.24286543    -0.06690
H706        H  0.74138945  0.02868282  0.18035552    -0.06860
C707        C  0.75325204  0.95252901  0.24483441     0.86690
C708        C  0.69047013  0.00386639  0.23999245     0.87270
C709        C  0.74182085  0.01404100  0.19200885     0.87320
H710        H  0.81086719  0.00789085  0.26414174    -0.06840
O711        O  0.76578665  0.01029391  0.29582811    -0.75870
Mg712      Mg  0.77562234  0.97651739  0.20750891     1.58000
H713        H  0.74785230  0.98389196  0.31017319    -0.06860
C714        C  0.68848679  0.92963189  0.24832234     0.92310
O715        O  0.72359157  0.94849366  0.18296708    -0.83100
C716        C  0.74136597  0.94851350  0.17031472     0.92370
O717        O  0.68423658  0.02220046  0.30441197    -0.83080
Mg718      Mg  0.77480822  0.04302994  0.27554852     1.58180
O719        O  0.69875988  0.93557291  0.22985113    -0.81420
O720        O  0.80135804  0.07017883  0.22506219    -0.83110
O721        O  0.95376467  0.99402075  0.51470283    -0.88700
C722        C  0.99739544  0.04946688  0.50679534     0.87330
Mg723      Mg  0.96283145  0.96408413  0.53467297     1.58150
O724        O  0.99361512  0.01332235  0.45829323    -0.88430
O725        O  0.94433083  0.00221941  0.47896738    -0.75760
C726        C  0.06929616  0.93857395  0.50191066     0.92380
O727        O  0.99055983  0.01434812  0.55152776    -0.75570
O728        O  0.05686351  0.93818608  0.51986665    -0.83080
Mg729      Mg  0.95945184  0.02716438  0.53070389     1.57960
C730        C  0.05297172  0.99435798  0.42481181     0.92300
O731        O  0.92759296  0.04420980  0.51439444    -0.81340
H732        H  0.97488090  0.99864343  0.43330923    -0.06680
C733        C  0.04799214  0.00292769  0.50105630     0.87240
O734        O  0.97491252  0.94501941  0.50236977    -0.75850
O735        O  0.98070672  0.03706954  0.50216200    -0.88610
O736        O  0.04189025  0.01232351  0.43071473    -0.81420
C737        C  0.00012313  0.07248359  0.44219544     0.92420
C738        C  0.92310514  0.05639481  0.49655978     0.92270
Mg739      Mg  0.03129171  0.96572700  0.46752872     1.57950
O740        O  0.06358192  0.95003893  0.48396104    -0.81350
O741        O  0.99968700  0.97794701  0.44700897    -0.75590
O742        O  0.98215216  0.06686113  0.45341496    -0.81430
O743        O  0.93746745  0.01684785  0.56088331    -0.83140
O744        O  0.00943336  0.92541935  0.54366616    -0.81460
C745        C  0.98896937  0.99697422  0.44550339     0.86710
O746        O  0.01046390  0.95567835  0.49609826    -0.88600
O747        O  0.03625216  0.99889909  0.48366331    -0.88710
O748        O  0.04566994  0.99140838  0.51959202    -0.75760
Mg749      Mg  0.96532503  0.03405414  0.46829992     1.57970
O750        O  0.01803353  0.05988344  0.44221143    -0.83140
H751        H  0.92946282  0.97654249  0.49757334    -0.06860
O752        O  0.99652147  0.97898759  0.54021691    -0.88410
H753        H  0.01484581  0.99334755  0.56567133    -0.06690
H754        H  0.99456841  0.93197595  0.47678657    -0.06860
C755        C  0.00102539  0.99520792  0.55319806     0.86690
C756        C  0.94182798  0.99049873  0.49734898     0.87270
C757        C  0.99361070  0.94356863  0.49129183     0.87320
H758        H  0.05993377  0.01724965  0.50075008    -0.06840
O759        O  0.01600403  0.04820103  0.49555269    -0.75870
Mg760      Mg  0.02564516  0.95891464  0.52996745     1.58000
H761        H  0.99635025  0.06119214  0.52118706    -0.06860
C762        C  0.93544706  0.99857555  0.57300402     0.92310
O763        O  0.97337264  0.93205846  0.55487870    -0.83100
C764        C  0.99141873  0.91946628  0.55461677     0.92370
O765        O  0.93561795  0.05592790  0.47870928    -0.83080
Mg766      Mg  0.02722251  0.02836454  0.46338782     1.58180
O767        O  0.94559010  0.97974809  0.56759085    -0.81420
O768        O  0.05286158  0.97599518  0.43694488    -0.83110
C769        C  0.60211708  0.77230537  0.86861182     0.02780
C770        C  0.57866195  0.77307757  0.86228348    -0.13370
C771        C  0.56750834  0.75341741  0.85419010     0.00280
C772        C  0.57750153  0.73187338  0.85869913    -0.11900
C773        C  0.60034640  0.73008282  0.86679038     0.02770
C774        C  0.61289660  0.75054154  0.87151810    -0.11320
H775        H  0.57040502  0.78968564  0.85961355     0.08360
H776        H  0.56847055  0.71636868  0.85344370     0.05890
H777        H  0.63105854  0.74956750  0.87577508     0.05740
C778        C  0.61266553  0.85978500  0.77400469     0.02780
C779        C  0.59439023  0.84396521  0.77681945    -0.13370
C780        C  0.58394426  0.83375437  0.75766410     0.00280
C781        C  0.59108900  0.84057950  0.73577715    -0.11900
C782        C  0.61066113  0.85436985  0.73228804     0.02770
C783        C  0.62155255  0.86415518  0.75174641    -0.11320
H784        H  0.58805132  0.84005814  0.79391423     0.08360
H785        H  0.58165937  0.83428115  0.72090560     0.05890
H786        H  0.63663336  0.87493321  0.74977802     0.05740
C787        C  0.47752308  0.63426256  0.85411762     0.02780
C788        C  0.47910986  0.64878803  0.83465315    -0.13370
C789        C  0.50047427  0.65596475  0.82621473     0.00280
C790        C  0.52047542  0.64639825  0.83554074    -0.11900
C791        C  0.51953723  0.63056419  0.85390616     0.02770
C792        C  0.49803690  0.62527748  0.86399927    -0.11320
H793        H  0.46352744  0.65647769  0.82759830     0.08360
H794        H  0.53705660  0.65206180  0.82912301     0.05890
H795        H  0.49746547  0.61498466  0.87961780     0.05740
C796        C  0.38097994  0.64478026  0.77012442     0.02780
C797        C  0.39944515  0.66036105  0.77239274    -0.13370
C798        C  0.41084656  0.66860708  0.75305438     0.00280
C799        C  0.40564059  0.65908801  0.73179115    -0.11900
C800        C  0.38531933  0.64634249  0.72833507     0.02770
C801        C  0.37304655  0.63856170  0.74785205    -0.11320
H802        H  0.40446560  0.66657414  0.78931630     0.08360
H803        H  0.41638651  0.66361494  0.71723697     0.05890
H804        H  0.35744272  0.62852793  0.74580941     0.05740
C805        C  0.47476012  0.87028342  0.65555975     0.02780
C806        C  0.47666588  0.86143793  0.67815366    -0.13370
C807        C  0.49591356  0.84885843  0.68464722     0.00280
C808        C  0.51618720  0.85146890  0.67186144    -0.11900
C809        C  0.51604146  0.86425152  0.65110990     0.02770
C810        C  0.49488505  0.87260094  0.64223866    -0.11320
H811        H  0.46142507  0.85999453  0.68879117     0.08360
H812        H  0.53170301  0.84242010  0.67718516     0.05890
H813        H  0.49397463  0.87945031  0.62484072     0.05740
C814        C  0.39280952  0.77222734  0.63418239     0.02780
C815        C  0.40988427  0.77184162  0.65163552    -0.13370
C816        C  0.41906633  0.75081217  0.65983914     0.00280
C817        C  0.41062730  0.73023545  0.65013845    -0.11900
C818        C  0.39399843  0.73059681  0.63219555     0.02770
C819        C  0.38558543  0.75168086  0.62397615    -0.11320
H820        H  0.41552589  0.78788275  0.65923850     0.08360
H821        H  0.41706090  0.71377326  0.65641651     0.05890
H822        H  0.37327986  0.75218467  0.60985964     0.05740
C823        C  0.37781185  0.86546835  0.63188715     0.00210
C824        C  0.36188898  0.88230332  0.63609981     0.00210
C825        C  0.38012036  0.63773356  0.86571459     0.00210
C826        C  0.36421790  0.63621793  0.88304841     0.00210
C827        C  0.64074248  0.86488706  0.52211247     0.02780
C828        C  0.65974185  0.84982693  0.52294553    -0.13370
C829        C  0.66865556  0.84059231  0.50283372     0.00280
C830        C  0.65942353  0.84738581  0.48175376    -0.11900
C831        C  0.64313755  0.86536755  0.48007301     0.02770
C832        C  0.63304765  0.87369644  0.50055867    -0.11320
H833        H  0.66613152  0.84354408  0.53946610     0.08360
H834        H  0.66603863  0.83941430  0.46626688     0.05890
H835        H  0.61944687  0.88645033  0.49983394     0.05740
C836        C  0.86437491  0.77519929  0.59852693     0.02780
C837        C  0.85118661  0.77482405  0.57816347    -0.13370
C838        C  0.84374525  0.75399778  0.56885175     0.00280
C839        C  0.85040842  0.73330437  0.57938586    -0.11900
C840        C  0.86171315  0.73310026  0.60097104     0.02770
C841        C  0.86908843  0.75429799  0.61040936    -0.11320
H842        H  0.84564244  0.79091715  0.57021812     0.08360
H843        H  0.84423815  0.71720127  0.57213461     0.05890
H844        H  0.87717177  0.75479781  0.62725452     0.05740
C845        C  0.72531208  0.85269964  0.61380170     0.02780
C846        C  0.72645505  0.83338290  0.59933718    -0.13370
C847        C  0.74749843  0.82425252  0.59262016     0.00280
C848        C  0.76778773  0.83459766  0.60033122    -0.11900
C849        C  0.76734591  0.85524786  0.61301975     0.02770
C850        C  0.74587510  0.86419074  0.62014860    -0.11320
H851        H  0.71068320  0.82536207  0.59321827     0.08360
H852        H  0.78414299  0.82769085  0.59465859     0.05890
H853        H  0.74503438  0.88000634  0.62990101     0.05740
C854        C  0.85176781  0.63832146  0.47891078     0.02780
C855        C  0.83127374  0.65111602  0.47859476    -0.13370
C856        C  0.82191646  0.65935316  0.49893236     0.00280
C857        C  0.83160760  0.65275535  0.51997905    -0.11900
C858        C  0.85042569  0.63755062  0.52086430     0.02770
C859        C  0.86114534  0.63081832  0.50019706    -0.11320
H860        H  0.82393975  0.65672518  0.46222221     0.08360
H861        H  0.82431437  0.65928034  0.53583207     0.05890
H862        H  0.87653759  0.62027250  0.50068471     0.05740
C863        C  0.72612690  0.64889477  0.38346984     0.02780
C864        C  0.72659831  0.66990837  0.39551787    -0.13370
C865        C  0.74712290  0.67876710  0.40428813     0.00280
C866        C  0.76782870  0.66829034  0.39835976    -0.11900
C867        C  0.76822494  0.64889592  0.38385138     0.02770
C868        C  0.74717787  0.63859956  0.37703793    -0.11320
H869        H  0.71051602  0.67789659  0.40054895     0.08360
H870        H  0.78381696  0.67515270  0.40527209     0.05890
H871        H  0.74730928  0.62256733  0.36761069     0.05740
C872        C  0.62632873  0.72883765  0.40016609     0.02780
C873        C  0.62144874  0.74999160  0.38888572    -0.13370
C874        C  0.63086214  0.77066137  0.39753161     0.00280
C875        C  0.64440582  0.77005235  0.41764109    -0.11900
C876        C  0.65026898  0.74908559  0.42812304     0.02770
C877        C  0.64131346  0.72857263  0.41933126    -0.11320
H878        H  0.61117324  0.75025301  0.37321685     0.08360
H879        H  0.65211935  0.78590012  0.42394376     0.05890
H880        H  0.64658425  0.71225748  0.42698881     0.05740
C881        C  0.86437731  0.62969499  0.38288075     0.00210
C882        C  0.88265505  0.62980842  0.36795934     0.00210
C883        C  0.63629934  0.88250078  0.36497913     0.00210
C884        C  0.63476405  0.86670477  0.38260495     0.00210
C885        C  0.86236264  0.60333630  0.77364021     0.02780
C886        C  0.84819061  0.58369294  0.77289848    -0.13370
C887        C  0.84086489  0.57459075  0.75186226     0.00280
C888        C  0.84832744  0.58479227  0.73132367    -0.11900
C889        C  0.86117546  0.60540853  0.73140445     0.02770
C890        C  0.86840998  0.61458881  0.75278866    -0.11320
H891        H  0.84206882  0.57601320  0.78882284     0.08360
H892        H  0.84211295  0.57794837  0.71504567     0.05890
H893        H  0.87751767  0.63085941  0.75339614     0.05740
C894        C  0.72628969  0.61557190  0.85211895     0.02780
C895        C  0.72586695  0.59959300  0.83392814    -0.13370
C896        C  0.74641569  0.59103736  0.82492765     0.00280
C897        C  0.76741017  0.59853642  0.83416536    -0.11900
C898        C  0.76821457  0.61283804  0.85360704     0.02770
C899        C  0.74751203  0.62180175  0.86232935    -0.11320
H900        H  0.70952995  0.59363161  0.82701144     0.08360
H901        H  0.78333337  0.59185194  0.82718712     0.05890
H902        H  0.74784161  0.63306501  0.87717512     0.05740
C903        C  0.64605386  0.52019524  0.86340459     0.02780
C904        C  0.66666928  0.51729784  0.85110953    -0.13370
C905        C  0.67461890  0.49540215  0.84482622     0.00280
C906        C  0.66268415  0.47590018  0.85275912    -0.11900
C907        C  0.64325083  0.47821623  0.86713980     0.02770
C908        C  0.63433755  0.50040736  0.87139502    -0.11320
H909        H  0.67588379  0.53242719  0.84507467     0.08360
H910        H  0.66857521  0.45886445  0.84790150     0.05890
H911        H  0.61841959  0.50217035  0.88080734     0.05740
C912        C  0.63491657  0.39580367  0.72930504     0.02780
C913        C  0.62246463  0.39070056  0.74968160    -0.13370
C914        C  0.63251093  0.39570001  0.77139966     0.00280
C915        C  0.65454817  0.40568326  0.77224803    -0.11900
C916        C  0.66482925  0.41391141  0.75247211     0.02770
C917        C  0.65654262  0.40674433  0.73128138    -0.11320
H918        H  0.60508237  0.38402173  0.74866609     0.08360
H919        H  0.66262552  0.40959958  0.78869861     0.05890
H920        H  0.66618879  0.41151450  0.71604361     0.05740
C921        C  0.84940526  0.48207778  0.63381605     0.02780
C922        C  0.82898045  0.48209918  0.64676049    -0.13370
C923        C  0.82067913  0.50233897  0.65641990     0.00280
C924        C  0.83090728  0.52317591  0.65073115    -0.11900
C925        C  0.84871982  0.52418192  0.63455358     0.02770
C926        C  0.85911600  0.50349204  0.62711108    -0.11320
H927        H  0.82091654  0.46586527  0.65148884     0.08360
H928        H  0.82439710  0.53891628  0.65836636     0.05890
H929        H  0.87436926  0.50411426  0.61652235     0.05740
C930        C  0.72822963  0.38692560  0.64309718     0.02780
C931        C  0.72934204  0.40027719  0.66323738    -0.13370
C932        C  0.75063649  0.40655169  0.67291366     0.00280
C933        C  0.77090574  0.39902648  0.66256045    -0.11900
C934        C  0.77014739  0.38486780  0.64299290     0.02770
C935        C  0.74874139  0.37897820  0.63307209    -0.11320
H936        H  0.71354501  0.40649590  0.67088857     0.08360
H937        H  0.78740315  0.40432617  0.66965576     0.05890
H938        H  0.74805191  0.36836480  0.61776297     0.05740
C939        C  0.86424456  0.38595356  0.62106089     0.00210
C940        C  0.88261229  0.37115664  0.61962592     0.00210
C941        C  0.61388547  0.38753975  0.86850334     0.00210
C942        C  0.61695497  0.36790148  0.88186441     0.00210
C943        C  0.26693792  0.85108506  0.11227954     0.02780
C944        C  0.26803956  0.82826296  0.10423734    -0.13370
C945        C  0.24815549  0.81499498  0.10200339     0.00280
C946        C  0.22777943  0.82298443  0.11128459    -0.11900
C947        C  0.22523076  0.84637617  0.11729106     0.02770
C948        C  0.24522718  0.86049089  0.11817148    -0.11320
H949        H  0.28406926  0.82169161  0.09738715     0.08360
H950        H  0.21286140  0.81176071  0.11026121     0.05890
H951        H  0.24382860  0.87870631  0.12195306     0.05740
C952        C  0.34845586  0.63505123  0.97748385     0.02780
C953        C  0.32718315  0.64672326  0.97681663    -0.13370
C954        C  0.31546425  0.65168975  0.99724391     0.00280
C955        C  0.32428307  0.64324824  0.01811343    -0.11900
C956        C  0.34661373  0.63383498  0.01948200     0.02770
C957        C  0.35833394  0.62881891  0.99893232    -0.11320
H958        H  0.32074791  0.65352486  0.96053193     0.08360
H959        H  0.31521678  0.64727356  0.03387326     0.05890
H960        H  0.37563135  0.62184392  0.99961948     0.05740
C961        C  0.26645883  0.65343169  0.88500819     0.02780
C962        C  0.26497773  0.67104535  0.90154587    -0.13370
C963        C  0.24455003  0.68252602  0.90572841     0.00280
C964        C  0.22447288  0.67476814  0.89519908    -0.11900
C965        C  0.22419664  0.65330054  0.88385220     0.02770
C966        C  0.24550678  0.64344787  0.87704469    -0.11320
H967        H  0.28024531  0.67653745  0.91090921     0.08360
H968        H  0.20833311  0.68301882  0.89961558     0.05890
H969        H  0.24568372  0.62814355  0.86658093     0.05740
C970        C  0.15303757  0.86943002  0.97805444     0.02780
C971        C  0.17376814  0.85764643  0.98316507    -0.13370
C972        C  0.17846991  0.84923192  0.00521852     0.00280
C973        C  0.16536698  0.85714620  0.02363628    -0.11900
C974        C  0.14622377  0.87154012  0.01958956     0.02770
C975        C  0.13938137  0.87669508  0.99674185    -0.11320
H976        H  0.18537691  0.85267401  0.96953462     0.08360
H977        H  0.16918740  0.85108186  0.04097269     0.05890
H978        H  0.12315824  0.88537560  0.99382424     0.05740
C979        C  0.12744936  0.77260914  0.89678136     0.02780
C980        C  0.14277321  0.77465315  0.91565036    -0.13370
C981        C  0.15132446  0.75493122  0.92698393     0.00280
C982        C  0.14403605  0.73312668  0.91950589    -0.11900
C983        C  0.12810562  0.73086066  0.90128558     0.02770
C984        C  0.11960877  0.75069959  0.89008328    -0.11320
H985        H  0.14882609  0.79155083  0.92081300     0.08360
H986        H  0.15099580  0.71774506  0.92773847     0.05890
H987        H  0.10733687  0.74912958  0.87601982     0.05740
C988        C  0.36444803  0.77160823  0.09721123     0.02780
C989        C  0.34585549  0.76759010  0.08214519    -0.13370
C990        C  0.33912304  0.74521680  0.07651870     0.00280
C991        C  0.35022450  0.72655063  0.08712328    -0.11900
C992        C  0.36824571  0.73013158  0.10303192     0.02770
C993        C  0.37560678  0.75273831  0.10790657    -0.11320
H994        H  0.33653739  0.78207148  0.07466056     0.08360
H995        H  0.34402585  0.70923213  0.08404066     0.05890
H996        H  0.38946202  0.75560384  0.12017187     0.05740
C997        C  0.01663828  0.85443628  0.13191374     0.02780
C998        C  0.01810908  0.83556960  0.14711514    -0.13370
C999        C  0.99848928  0.82437258  0.15484172     0.00280
C1000       C  0.97703743  0.83191151  0.14692382    -0.11900
C1001       C  0.97454892  0.85302351  0.13491196     0.02770
C1002       C  0.99475763  0.86425168  0.12689076    -0.11320
H1003       H  0.03486018  0.82960781  0.15304541     0.08360
H1004       H  0.96181443  0.82267365  0.15251793     0.05890
H1005       H  0.99360141  0.88024775  0.11721721     0.05740
C1006       C  0.88231175  0.72786069  0.14655750     0.02780
C1007       C  0.89808850  0.72961606  0.16494774    -0.13370
C1008       C  0.90423848  0.75107217  0.17409488     0.00280
C1009       C  0.89336369  0.77096550  0.16567916    -0.11900
C1010       C  0.87692659  0.76974192  0.14784911     0.02770
C1011       C  0.87174104  0.74814659  0.13784519    -0.11320
H1012       H  0.90652765  0.71413500  0.17136734     0.08360
H1013       H  0.89825314  0.78768754  0.17247416     0.05890
H1014       H  0.85986626  0.74718897  0.12339066     0.05740
C1015       C  0.09922655  0.86867117  0.26756944     0.02780
C1016       C  0.07633084  0.86069903  0.26662423    -0.13370
C1017       C  0.06833022  0.84920306  0.24731882     0.00280
C1018       C  0.07969738  0.85250166  0.22641685    -0.11900
C1019       C  0.10104140  0.86399455  0.22563319     0.02770
C1020       C  0.11157155  0.87091962  0.24667055    -0.11320
H1021       H  0.06644885  0.85913006  0.28236954     0.08360
H1022       H  0.07275829  0.84465541  0.21091998     0.05890
H1023       H  0.12922328  0.87692344  0.24681602     0.05740
C1024       C  0.01840802  0.65117608  0.36459897     0.02780
C1025       C  0.01572666  0.67303184  0.35406636    -0.13370
C1026       C  0.99411759  0.68091486  0.34682117     0.00280
C1027       C  0.97454950  0.66925940  0.35456527    -0.11900
C1028       C  0.97664668  0.64890934  0.36773611     0.02770
C1029       C  0.99853299  0.63907310  0.37153841    -0.11320
H1030       H  0.03086654  0.68262779  0.34886996     0.08360
H1031       H  0.95760125  0.67539215  0.34951132     0.05890
H1032       H  0.99989327  0.62210271  0.37933548     0.05740
C1033       C  0.89426213  0.63630913  0.22882723     0.02780
C1034       C  0.91388352  0.65043824  0.22793761    -0.13370
C1035       C  0.92497713  0.65766132  0.24804957     0.00280
C1036       C  0.91717488  0.64936473  0.26915356    -0.11900
C1037       C  0.89576427  0.63803453  0.27094895     0.02770
C1038       C  0.88446420  0.63098843  0.25046516    -0.11320
H1039       H  0.92013466  0.65636173  0.21134047     0.08360
H1040       H  0.92649422  0.65419643  0.28465509     0.05890
H1041       H  0.86831913  0.62179330  0.25127484     0.05740
C1042       C  0.11657560  0.77244637  0.35512396     0.02780
C1043       C  0.09988164  0.77311370  0.33733264    -0.13370
C1044       C  0.09118898  0.75268907  0.32769131     0.00280
C1045       C  0.10039616  0.73154097  0.33526962    -0.11900
C1046       C  0.11747134  0.73070550  0.35251983     0.02770
C1047       C  0.12545042  0.75115989  0.36258571    -0.11320
H1048       H  0.09295820  0.78945251  0.33164266     0.08360
H1049       H  0.09372287  0.71550012  0.32835257     0.05890
H1050       H  0.13804733  0.75048208  0.37645920     0.05740
C1051       C  0.97423563  0.60534981  0.88068420     0.02780
C1052       C  0.97207620  0.58198451  0.88711786    -0.13370
C1053       C  0.99132310  0.56930639  0.89396983     0.00280
C1054       C  0.01306762  0.57764893  0.88809394    -0.11900
C1055       C  0.01621813  0.60100301  0.88195469     0.02770
C1056       C  0.99650734  0.61504510  0.87830878    -0.11320
H1057       H  0.95514046  0.57510395  0.89094708     0.08360
H1058       H  0.02804534  0.56722023  0.89230014     0.05890
H1059       H  0.99843573  0.63345155  0.87556648     0.05740
C1060       C  0.89865651  0.61888962  0.02034348     0.02780
C1061       C  0.88358472  0.62428650  0.00174965    -0.13370
C1062       C  0.88939108  0.61779707  0.97910359     0.00280
C1063       C  0.90877805  0.60372629  0.97556955    -0.11900
C1064       C  0.92382394  0.59873318  0.99384587     0.02770
C1065       C  0.92039425  0.60982470  0.01488761    -0.11320
H1066       H  0.86720866  0.63261127  0.00467402     0.08360
H1067       H  0.91161749  0.59609648  0.95881743     0.05890
H1068       H  0.93357010  0.60829232  0.02807641     0.05740
C1069       C  0.01866621  0.40084436  0.11474259     0.02780
C1070       C  0.01931962  0.41977385  0.09948606    -0.13370
C1071       C  0.99908854  0.42895759  0.08991835     0.00280
C1072       C  0.97786535  0.41924364  0.09611477    -0.11900
C1073       C  0.97678077  0.39940512  0.11019239     0.02770
C1074       C  0.99730354  0.39042352  0.11982375    -0.11320
H1075       H  0.03582585  0.42671134  0.09423412     0.08360
H1076       H  0.96211705  0.42605379  0.08857193     0.05890
H1077       H  0.99674243  0.37508626  0.13059452     0.05740
C1078       C  0.87640236  0.52184620  0.09650813     0.02780
C1079       C  0.89348008  0.52287690  0.07937386    -0.13370
C1080       C  0.90465597  0.50284278  0.07185187     0.00280
C1081       C  0.89805549  0.48167621  0.08135578    -0.11900
C1082       C  0.88004594  0.47988844  0.09719002     0.02770
C1083       C  0.86966721  0.50016489  0.10544889    -0.11320
H1084       H  0.89855444  0.53936780  0.07264310     0.08360
H1085       H  0.90685850  0.46606886  0.07616435     0.05890
H1086       H  0.85623942  0.49909717  0.11827305     0.05740
C1087       C  0.09889813  0.38285161  0.97666376     0.02780
C1088       C  0.08006637  0.39799965  0.97517808    -0.13370
C1089       C  0.07004851  0.40711741  0.99499526     0.00280
C1090       C  0.07848144  0.40022498  0.01664534    -0.11900
C1091       C  0.09867220  0.38696119  0.01883975     0.02770
C1092       C  0.10867249  0.37784238  0.99862749    -0.11320
H1093       H  0.07384356  0.40350875  0.95834482     0.08360
H1094       H  0.07036204  0.40679999  0.03202876     0.05890
H1095       H  0.12415047  0.36747457  0.99988355     0.05740
C1096       C  0.11162926  0.47780482  0.89298245     0.02780
C1097       C  0.09623784  0.47931585  0.91151990    -0.13370
C1098       C  0.08759182  0.50060026  0.91857247     0.00280
C1099       C  0.09634881  0.52075242  0.90866875    -0.11900
C1100       C  0.11341109  0.51979633  0.89173042     0.02770
C1101       C  0.12102236  0.49825866  0.88364252    -0.11320
H1102       H  0.08971611  0.46363683  0.91940504     0.08360
H1103       H  0.08995489  0.53741564  0.91418137     0.05890
H1104       H  0.13362382  0.49748502  0.86999860     0.05740
C1105       C  0.34306915  0.61856549  0.26651608     0.02780
C1106       C  0.32131396  0.60802136  0.26507186    -0.13370
C1107       C  0.31379194  0.59813639  0.24451470     0.00280
C1108       C  0.32623040  0.60228456  0.22448698    -0.11900
C1109       C  0.34571992  0.61678920  0.22447373     0.02770
C1110       C  0.35453045  0.62459980  0.24593683    -0.11320
H1111       H  0.31195006  0.60438767  0.28079514     0.08360
H1112       H  0.32067057  0.59402456  0.20866448     0.05890
H1113       H  0.37028423  0.63451015  0.24679937     0.05740
C1114       C  0.26549432  0.39874711  0.13165328     0.02780
C1115       C  0.26513346  0.41813799  0.14605672    -0.13370
C1116       C  0.24426477  0.42705893  0.15401330     0.00280
C1117       C  0.22357893  0.41717948  0.14667468    -0.11900
C1118       C  0.22344431  0.39855158  0.13129276     0.02770
C1119       C  0.24453102  0.38880743  0.12432800    -0.11320
H1120       H  0.28124755  0.42535035  0.15228057     0.08360
H1121       H  0.20745301  0.42380180  0.15324138     0.05890
H1122       H  0.24463167  0.37372357  0.11337763     0.05740
C1123       C  0.35751631  0.48315480  0.14457688     0.02780
C1124       C  0.33954893  0.48529576  0.16051032    -0.13370
C1125       C  0.33239806  0.50675895  0.16828668     0.00280
C1126       C  0.34165163  0.52671610  0.15847621    -0.11900
C1127       C  0.35820925  0.52521475  0.14103819     0.02770
C1128       C  0.36702207  0.50340930  0.13480910    -0.11320
H1129       H  0.33139958  0.46996550  0.16753685     0.08360
H1130       H  0.33547045  0.54348904  0.16388489     0.05890
H1131       H  0.38084950  0.50231271  0.12245514     0.05740
C1132       C  0.14644120  0.38132369  0.27056697     0.02780
C1133       C  0.16591772  0.39573036  0.27093293    -0.13370
C1134       C  0.17578832  0.40349778  0.25040894     0.00280
C1135       C  0.16643506  0.39643151  0.22934312    -0.11900
C1136       C  0.14545880  0.38440482  0.22829164     0.02770
C1137       C  0.13569013  0.37626452  0.24912214    -0.11320
H1138       H  0.17292303  0.40155831  0.28728505     0.08360
H1139       H  0.17429780  0.40242809  0.21349336     0.05890
H1140       H  0.11966240  0.36671047  0.24873990     0.05740
C1141       C  0.13174499  0.47823943  0.35269707     0.02780
C1142       C  0.12486787  0.49916752  0.36287339    -0.13370
C1143       C  0.13255994  0.52034454  0.35352639     0.00280
C1144       C  0.14776272  0.52024498  0.33472708    -0.11900
C1145       C  0.15391168  0.49955510  0.32416292     0.02770
C1146       C  0.14498247  0.47889489  0.33254776    -0.11320
H1147       H  0.11385912  0.49894957  0.37783140     0.08360
H1148       H  0.15467994  0.53639381  0.32821365     0.05890
H1149       H  0.15009800  0.46285305  0.32448907     0.05740
C1150       C  0.26792641  0.60216083  0.36440443     0.02780
C1151       C  0.26804373  0.58325861  0.34925732    -0.13370
C1152       C  0.24743217  0.57350124  0.34161654     0.00280
C1153       C  0.22664308  0.58289355  0.34872703    -0.11900
C1154       C  0.22609597  0.60355896  0.36114425     0.02770
C1155       C  0.24682399  0.61290569  0.36974054    -0.11320
H1156       H  0.28423537  0.57621680  0.34331635     0.08360
H1157       H  0.21065154  0.57540450  0.34249557     0.05890
H1158       H  0.24659305  0.62850020  0.37995029     0.05740
C1159       C  0.39419939  0.61670710  0.47521535     0.02780
C1160       C  0.41307595  0.60142124  0.47614266    -0.13370
C1161       C  0.41976465  0.59102210  0.49682433     0.00280
C1162       C  0.40867683  0.59736523  0.51684662    -0.11900
C1163       C  0.39340864  0.61616485  0.51731890     0.02770
C1164       C  0.38511837  0.62531330  0.49611672    -0.11320
H1165       H  0.42098467  0.59582466  0.46024016     0.08360
H1166       H  0.41312860  0.58851036  0.53280460     0.05890
H1167       H  0.37183613  0.63840500  0.49583764     0.05740
C1168       C  0.60755941  0.38565623  0.47794587     0.02780
C1169       C  0.58841790  0.40044725  0.47512782    -0.13370
C1170       C  0.57776106  0.41037265  0.49424139     0.00280
C1171       C  0.58652986  0.40538869  0.51628817    -0.11900
C1172       C  0.60670114  0.39230105  0.51935891     0.02770
C1173       C  0.61701564  0.38204755  0.50007693    -0.11320
H1174       H  0.58184860  0.40419432  0.45795982     0.08360
H1175       H  0.57831453  0.41277237  0.53125626     0.05890
H1176       H  0.63220559  0.37137811  0.50224662     0.05740
C1177       C  0.61296438  0.48020165  0.39514986     0.02780
C1178       C  0.59182960  0.48339173  0.40620839    -0.13370
C1179       C  0.58621554  0.50432903  0.41622002     0.00280
C1180       C  0.59892565  0.52386448  0.41048782    -0.11900
C1181       C  0.61810251  0.52201091  0.39595872     0.02770
C1182       C  0.62575951  0.49997639  0.38883084    -0.11320
H1183       H  0.58050128  0.46876161  0.40895994     0.08360
H1184       H  0.59370187  0.54059226  0.41693346     0.05890
H1185       H  0.64145393  0.49834454  0.37902418     0.05740
C1186       C  0.47696788  0.39616707  0.60680906     0.02780
C1187       C  0.47982899  0.41626187  0.59333845    -0.13370
C1188       C  0.50175093  0.42378715  0.58672028     0.00280
C1189       C  0.52099668  0.41191864  0.59488263    -0.11900
C1190       C  0.51878122  0.39323949  0.61024968     0.02770
C1191       C  0.49665453  0.38526074  0.61628500    -0.11320
H1192       H  0.46474738  0.42519596  0.58671442     0.08360
H1193       H  0.53801026  0.41753616  0.58964564     0.05890
H1194       H  0.49477256  0.37067309  0.62787974     0.05740
C1195       C  0.38448142  0.47973672  0.60301711     0.02780
C1196       C  0.40175121  0.47947125  0.58621701    -0.13370
C1197       C  0.41116574  0.49984111  0.57760646     0.00280
C1198       C  0.40452930  0.52090253  0.58733131    -0.11900
C1199       C  0.38847836  0.52153937  0.60536890     0.02770
C1200       C  0.37815766  0.50086216  0.61309494    -0.11320
H1201       H  0.40741079  0.46311187  0.57924305     0.08360
H1202       H  0.41207052  0.53688747  0.58113681     0.05890
H1203       H  0.36508736  0.50129374  0.62630966     0.05740
C1204       C  0.47496241  0.60526404  0.37860459     0.02780
C1205       C  0.47239327  0.58560804  0.39264667    -0.13370
C1206       C  0.49150743  0.57349636  0.40074444     0.00280
C1207       C  0.51345235  0.58080744  0.39408935    -0.11900
C1208       C  0.51678184  0.60169997  0.38200308     0.02770
C1209       C  0.49720911  0.61391279  0.37389882    -0.11320
H1210       H  0.45529888  0.58001773  0.39764183     0.08360
H1211       H  0.52836238  0.57127307  0.40024518     0.05890
H1212       H  0.49913668  0.63004913  0.36459759     0.05740
C1213       C  0.63310600  0.35277453  0.97810524     0.02780
C1214       C  0.64750366  0.33334602  0.97933557    -0.13370
C1215       C  0.65522300  0.32463647  0.00052305     0.00280
C1216       C  0.64586496  0.33346905  0.02078068    -0.11900
C1217       C  0.62959412  0.35141034  0.01990560     0.02770
C1218       C  0.62367446  0.36160139  0.99854821    -0.11320
H1219       H  0.65419266  0.32613591  0.96353746     0.08360
H1220       H  0.65160192  0.32679768  0.03737347     0.05890
H1221       H  0.61219612  0.37633247  0.99791692     0.05740
C1222       C  0.64438600  0.27384113  0.87922308     0.02780
C1223       C  0.63528520  0.25158316  0.87432166    -0.13370
C1224       C  0.64710129  0.23154080  0.88211682     0.00280
C1225       C  0.66846258  0.23437441  0.89331584    -0.11900
C1226       C  0.67553886  0.25590009  0.90139676     0.02770
C1227       C  0.66398523  0.27561523  0.89352771    -0.11320
H1228       H  0.61904638  0.24992989  0.86526026     0.08360
H1229       H  0.67794893  0.21914551  0.89876760     0.05890
H1230       H  0.66950485  0.29244944  0.89951650     0.05740
C1231       C  0.85099602  0.26949583  0.11327950     0.02780
C1232       C  0.83143209  0.26665528  0.09901957    -0.13370
C1233       C  0.82351777  0.24472782  0.09245836     0.00280
C1234       C  0.83397022  0.22523759  0.10238253    -0.11900
C1235       C  0.85273921  0.22746909  0.11778619     0.02770
C1236       C  0.86159511  0.24962094  0.12272839    -0.11320
H1237       H  0.82320367  0.28183547  0.09169724     0.08360
H1238       H  0.82805761  0.20818243  0.09752081     0.05890
H1239       H  0.87694773  0.25122544  0.13329555     0.05740
C1240       C  0.86463389  0.14365522  0.97938539     0.02780
C1241       C  0.84541699  0.15833722  0.97718462    -0.13370
C1242       C  0.83395231  0.16590630  0.99671864     0.00280
C1243       C  0.84040573  0.15687858  0.01800009    -0.11900
C1244       C  0.86184936  0.14610032  0.02127547     0.02770
C1245       C  0.87382952  0.13865015  0.00152983    -0.11320
H1246       H  0.83953970  0.16389348  0.96023654     0.08360
H1247       H  0.82931502  0.16004048  0.03256949     0.05890
H1248       H  0.88990829  0.12932994  0.00317207     0.05740
C1249       C  0.76614165  0.13592784  0.89663894     0.02780
C1250       C  0.76338742  0.14903794  0.91669787    -0.13370
C1251       C  0.74162892  0.15620172  0.92377670     0.00280
C1252       C  0.72222661  0.14754007  0.91255848    -0.11900
C1253       C  0.72439247  0.13180191  0.89435650     0.02770
C1254       C  0.74649351  0.12616672  0.88603005    -0.11320
H1255       H  0.77854184  0.15580191  0.92536373     0.08360
H1256       H  0.70526135  0.15304192  0.91797714     0.05890
H1257       H  0.74833350  0.11497163  0.87127717     0.05740
C1258       C  0.76908912  0.36442967  0.10222581     0.02780
C1259       C  0.77109345  0.34961528  0.08329330    -0.13370
C1260       C  0.75162436  0.34156855  0.07181473     0.00280
C1261       C  0.73000331  0.34934747  0.07881882    -0.11900
C1262       C  0.72717567  0.36140967  0.09967129     0.02770
C1263       C  0.74713752  0.36921541  0.11140355    -0.11320
H1264       H  0.78800615  0.34412407  0.07770802     0.08360
H1265       H  0.71490146  0.34380929  0.06925576     0.05890
H1266       H  0.74578170  0.37856030  0.12743214     0.05740
C1267       C  0.60362076  0.97804523  0.88166810     0.02780
C1268       C  0.58048275  0.97536561  0.88831097    -0.13370
C1269       C  0.56752075  0.99434337  0.89496893     0.00280
C1270       C  0.57531484  0.01640673  0.88884012    -0.11900
C1271       C  0.59819828  0.02009590  0.88166851     0.02770
C1272       C  0.61261395  0.00058961  0.87856338    -0.11320
H1273       H  0.57399073  0.95824034  0.89227414     0.08360
H1274       H  0.56481176  0.03122335  0.89314049     0.05890
H1275       H  0.63088700  0.00282824  0.87588066     0.05740
C1276       C  0.61295412  0.89114664  0.97767770     0.02780
C1277       C  0.59930833  0.91120793  0.97561036    -0.13370
C1278       C  0.59398736  0.92431163  0.99514157     0.00280
C1279       C  0.60383369  0.91793094  0.01625341    -0.11900
C1280       C  0.61351636  0.89588467  0.01927760     0.02770
C1281       C  0.61923474  0.88291890  0.99973073    -0.11320
H1282       H  0.59223540  0.91603523  0.95893530     0.08360
H1283       H  0.60035186  0.92835219  0.03130595     0.05890
H1284       H  0.62757040  0.86627961  0.00159687     0.05740
C1285       C  0.38088899  0.10726203  0.97722679     0.02780
C1286       C  0.39635613  0.08875815  0.97379206    -0.13370
C1287       C  0.40533127  0.07619802  0.99249718     0.00280
C1288       C  0.39812457  0.08206227  0.01467465    -0.11900
C1289       C  0.38519251  0.10220711  0.01884945     0.02770
C1290       C  0.37615913  0.11457079  0.99981462    -0.11320
H1291       H  0.40112059  0.08398127  0.95642805     0.08360
H1292       H  0.40428887  0.07187628  0.02918631     0.05890
H1293       H  0.36555180  0.12959685  0.00245738     0.05740
C1294       C  0.47461599  0.11761109  0.89499938     0.02780
C1295       C  0.47766277  0.09580038  0.90516515    -0.13370
C1296       C  0.49890782  0.08886398  0.91368474     0.00280
C1297       C  0.51846102  0.10110094  0.90716658    -0.11900
C1298       C  0.51639479  0.12125882  0.89364829     0.02770
C1299       C  0.49429843  0.13028768  0.88838650    -0.11320
H1300       H  0.46283775  0.08489952  0.90843224     0.08360
H1301       H  0.53533952  0.09504002  0.91258961     0.05890
H1302       H  0.49255310  0.14674473  0.87959203     0.05740
C1303       C  0.39815440  0.98139675  0.11008617     0.02780
C1304       C  0.41664373  0.98268453  0.09461663    -0.13370
C1305       C  0.42624513  0.00410022  0.08830988     0.00280
C1306       C  0.41776633  0.02417940  0.09856184    -0.11900
C1307       C  0.39966795  0.02306653  0.11450925     0.02770
C1308       C  0.38943594  0.00173034  0.11974846    -0.11320
H1309       H  0.42263481  0.96700111  0.08649843     0.08360
H1310       H  0.42477151  0.04084242  0.09365760     0.05890
H1311       H  0.37481928  0.00096162  0.13123401     0.05740
C1312       C  0.47644882  0.88500931  0.09897215     0.02780
C1313       C  0.47880819  0.90263704  0.08246909    -0.13370
C1314       C  0.50025558  0.91124281  0.07599659     0.00280
C1315       C  0.51998098  0.90288723  0.08745260    -0.11900
C1316       C  0.51821493  0.88551028  0.10459145     0.02770
C1317       C  0.49640070  0.87612806  0.10986196    -0.11320
H1318       H  0.46346373  0.90984238  0.07446188     0.08360
H1319       H  0.53664207  0.91021705  0.08350900     0.05890
H1320       H  0.49500422  0.86237010  0.12250316     0.05740
C1321       C  0.85061841  0.11548100  0.26918564     0.02780
C1322       C  0.82879584  0.10493437  0.26773450    -0.13370
C1323       C  0.81835832  0.10095796  0.24616156     0.00280
C1324       C  0.82889757  0.10980051  0.22650989    -0.11900
C1325       C  0.85197840  0.11706600  0.22735570     0.02770
C1326       C  0.86249794  0.12111251  0.24884195    -0.11320
H1327       H  0.82094303  0.09819353  0.28328948     0.08360
H1328       H  0.82075956  0.10691912  0.20986754     0.05890
H1329       H  0.88026106  0.12676853  0.24976768     0.05740
C1330       C  0.86256116  0.98037939  0.14453839     0.02780
C1331       C  0.87143796  0.00021867  0.13363856    -0.13370
C1332       C  0.86361276  0.02229890  0.14005909     0.00280
C1333       C  0.84653420  0.02429125  0.15716243    -0.11900
C1334       C  0.83740474  0.00458998  0.16795440     0.02770
C1335       C  0.84574651  0.98287922  0.16157654    -0.11320
H1336       H  0.88408512  0.99846542  0.12014402     0.08360
H1337       H  0.83986203  0.04116969  0.16145045     0.05890
H1338       H  0.83860652  0.96749608  0.16953189     0.05740
C1339       C  0.76447676  0.90191752  0.13205751     0.02780
C1340       C  0.76346023  0.92236668  0.14491029    -0.13370
C1341       C  0.74230553  0.93218334  0.15087037     0.00280
C1342       C  0.72199205  0.92278177  0.14184041    -0.11900
C1343       C  0.72241058  0.90313040  0.12779660     0.02770
C1344       C  0.74382480  0.89239674  0.12321290    -0.11320
H1345       H  0.77922657  0.92925979  0.15227892     0.08360
H1346       H  0.70555868  0.92984876  0.14705292     0.05890
H1347       H  0.74429149  0.87630584  0.11381145     0.05740
C1348       C  0.63202391  0.97940488  0.35094180     0.02780
C1349       C  0.64698232  0.98045420  0.33193864    -0.13370
C1350       C  0.65454670  0.00168245  0.32322932     0.00280
C1351       C  0.64627598  0.02182326  0.33297842    -0.11900
C1352       C  0.62989816  0.02154002  0.35064052     0.02770
C1353       C  0.62315398  0.00010997  0.36019401    -0.11320
H1354       H  0.65413148  0.96460690  0.32516551     0.08360
H1355       H  0.65278836  0.03823344  0.32671369     0.05890
H1356       H  0.61166950  0.99954985  0.37479497     0.05740
C1357       C  0.64538949  0.88503632  0.26847107     0.02780
C1358       C  0.66322617  0.90143573  0.26837405    -0.13370
C1359       C  0.67217960  0.91007396  0.24784578     0.00280
C1360       C  0.66280715  0.90247322  0.22700251    -0.11900
C1361       C  0.64324343  0.88811286  0.22654315     0.02770
C1362       C  0.63503249  0.87856956  0.24741448    -0.11320
H1363       H  0.67027140  0.90745777  0.28464272     0.08360
H1364       H  0.66976017  0.90904257  0.21095972     0.05890
H1365       H  0.62070558  0.86660387  0.24731058     0.05740
C1366       C  0.76790682  0.10241994  0.36575740     0.02780
C1367       C  0.74748719  0.11014975  0.37618585    -0.13370
C1368       C  0.72599611  0.10278684  0.36725445     0.00280
C1369       C  0.72525356  0.08658044  0.34922220    -0.11900
C1370       C  0.74550486  0.07962585  0.33840561     0.02770
C1371       C  0.76623940  0.08891716  0.34581068    -0.11320
H1372       H  0.74818947  0.12176002  0.39072756     0.08360
H1373       H  0.70875645  0.08072787  0.34259984     0.05890
H1374       H  0.78177531  0.08452107  0.33655880     0.05740
C1375       C  0.60927644  0.35810581  0.27167733     0.02780
C1376       C  0.59422702  0.33908193  0.27165696    -0.13370
C1377       C  0.58654479  0.32935871  0.25091470     0.00280
C1378       C  0.59422933  0.33855611  0.23001917    -0.11900
C1379       C  0.60991436  0.35699814  0.22955111     0.02770
C1380       C  0.61738147  0.36689824  0.25047576    -0.11320
H1381       H  0.58787878  0.33232260  0.28789721     0.08360
H1382       H  0.58814627  0.33116914  0.21393603     0.05890
H1383       H  0.62928348  0.38126914  0.25024453     0.05740
C1384       C  0.38137327  0.14836249  0.27023500     0.02780
C1385       C  0.39502735  0.16840770  0.26991588    -0.13370
C1386       C  0.40120064  0.17882816  0.24916147     0.00280
C1387       C  0.39332016  0.16944678  0.22851426    -0.11900
C1388       C  0.38187299  0.14807312  0.22813972     0.02770
C1389       C  0.37544517  0.13762409  0.24919443    -0.11320
H1390       H  0.40133399  0.17564989  0.28597931     0.08360
H1391       H  0.39864517  0.17733007  0.21238106     0.05890
H1392       H  0.36682339  0.12108391  0.24935445     0.05740
C1393       C  0.47579008  0.13623338  0.35174983     0.02780
C1394       C  0.47536771  0.14996948  0.33170404    -0.13370
C1395       C  0.49568548  0.15861707  0.32242549     0.00280
C1396       C  0.51667112  0.15178593  0.33196217    -0.11900
C1397       C  0.51765032  0.13534674  0.34989042     0.02770
C1398       C  0.49704166  0.12814006  0.36049008    -0.11320
H1399       H  0.45898726  0.15585946  0.32472951     0.08360
H1400       H  0.53244419  0.15899229  0.32506885     0.05890
H1401       H  0.49754513  0.11686520  0.37545667     0.05740
C1402       C  0.59881945  0.27196532  0.36262782     0.02780
C1403       C  0.58041031  0.27164127  0.34679841    -0.13370
C1404       C  0.56955653  0.25114539  0.34093133     0.00280
C1405       C  0.57841750  0.23037405  0.34929996    -0.11900
C1406       C  0.59935631  0.22988362  0.36161743     0.02770
C1407       C  0.60911294  0.25082806  0.36934156    -0.11320
H1408       H  0.57404510  0.28765740  0.33935897     0.08360
H1409       H  0.57040543  0.21430250  0.34404546     0.05890
H1410       H  0.62458689  0.25066514  0.37987660     0.05740
C1411       C  0.47518043  0.36767141  0.14432886     0.02780
C1412       C  0.47466343  0.35287728  0.16360863    -0.13370
C1413       C  0.49497253  0.34553250  0.17416010     0.00280
C1414       C  0.51600418  0.35262770  0.16527121    -0.11900
C1415       C  0.51720413  0.36490518  0.14436443     0.02770
C1416       C  0.49656377  0.37289951  0.13391097    -0.11320
H1417       H  0.45830237  0.34714932  0.17051132     0.08360
H1418       H  0.53174114  0.34645397  0.17343109     0.05890
H1419       H  0.49709288  0.38276468  0.11800063     0.05740
C1420       C  0.39255625  0.27374807  0.13456832     0.02780
C1421       C  0.41390946  0.27225553  0.14598069    -0.13370
C1422       C  0.42234422  0.25111344  0.15383612     0.00280
C1423       C  0.41106096  0.23088427  0.14741203    -0.11900
C1424       C  0.39155916  0.23167382  0.13289882     0.02770
C1425       C  0.38195404  0.25328941  0.12669619    -0.11320
H1426       H  0.42264586  0.28795484  0.15120441     0.08360
H1427       H  0.41759445  0.21438302  0.15353284     0.05890
H1428       H  0.36637645  0.25418417  0.11636693     0.05740
C1429       C  0.12962564  0.35725557  0.47613455     0.02780
C1430       C  0.14610240  0.33959916  0.47383953    -0.13370
C1431       C  0.15477939  0.32783334  0.49321819     0.00280
C1432       C  0.14689741  0.33396370  0.51510478    -0.11900
C1433       C  0.13030942  0.35139285  0.51775245     0.02770
C1434       C  0.12152017  0.36298627  0.49817552    -0.11320
H1435       H  0.15289848  0.33575062  0.45696445     0.08360
H1436       H  0.15398747  0.32540459  0.53026245     0.05890
H1437       H  0.10894664  0.37663437  0.50011954     0.05740
C1438       C  0.34579391  0.27157539  0.61819728     0.02780
C1439       C  0.32751410  0.27197485  0.60225552    -0.13370
C1440       C  0.31816338  0.25149326  0.59365408     0.00280
C1441       C  0.32647363  0.23028815  0.60196882    -0.11900
C1442       C  0.34403069  0.22947948  0.61882186     0.02770
C1443       C  0.35380683  0.25025561  0.62687824    -0.11320
H1444       H  0.32186016  0.28838455  0.59507108     0.08360
H1445       H  0.31982201  0.21435868  0.59477999     0.05890
H1446       H  0.36814945  0.24980897  0.63892744     0.05740
C1447       C  0.36376513  0.14964439  0.47780619     0.02780
C1448       C  0.35009602  0.16968074  0.47696519    -0.13370
C1449       C  0.34390786  0.18084484  0.49723644     0.00280
C1450       C  0.35212476  0.17239371  0.51823803    -0.11900
C1451       C  0.36228484  0.15039599  0.51979194     0.02770
C1452       C  0.36862669  0.13912002  0.49931630    -0.11320
H1453       H  0.34389264  0.17628398  0.46051182     0.08360
H1454       H  0.34730189  0.18126428  0.53391062     0.05890
H1455       H  0.37647677  0.12220326  0.49991922     0.05740
C1456       C  0.26705638  0.36602705  0.59923837     0.02780
C1457       C  0.26684236  0.35164734  0.57978468    -0.13370
C1458       C  0.24648907  0.34582488  0.56868105     0.00280
C1459       C  0.22572866  0.35346409  0.57760031    -0.11900
C1460       C  0.22495941  0.36425649  0.59929499     0.02770
C1461       C  0.24582145  0.37165678  0.60973184    -0.11320
H1462       H  0.28286326  0.34498306  0.57298526     0.08360
H1463       H  0.20984011  0.34803510  0.56927862     0.05890
H1464       H  0.24551288  0.38096066  0.62584746     0.05740
C1465       C  0.14592438  0.27163237  0.38141585     0.02780
C1466       C  0.16867436  0.27177464  0.38995248    -0.13370
C1467       C  0.17926042  0.25137277  0.39704643     0.00280
C1468       C  0.16919433  0.23033649  0.39103394    -0.11900
C1469       C  0.14685748  0.22953730  0.38148197     0.02770
C1470       C  0.13494787  0.25036875  0.37716412    -0.11320
H1471       H  0.17679219  0.28804141  0.39438707     0.08360
H1472       H  0.17737865  0.21439930  0.39663662     0.05890
H1473       H  0.11689627  0.25003372  0.37234363     0.05740
C1474       C  0.26876217  0.13603192  0.39662204     0.02780
C1475       C  0.26821638  0.14762424  0.41784059    -0.13370
C1476       C  0.24770397  0.15656475  0.42616784     0.00280
C1477       C  0.22701547  0.14997281  0.41586438    -0.11900
C1478       C  0.22685492  0.13481992  0.39701336     0.02770
C1479       C  0.24785366  0.12849424  0.38666407    -0.11320
H1480       H  0.28423424  0.15251886  0.42621970     0.08360
H1481       H  0.21093703  0.15665508  0.42249401     0.05890
H1482       H  0.24784397  0.11848761  0.37095080     0.05740
C1483       C  0.97556690  0.37091788  0.64844671     0.02780
C1484       C  0.97369803  0.35715915  0.66842068    -0.13370
C1485       C  0.99324577  0.34839747  0.67954041     0.00280
C1486       C  0.01492966  0.35398727  0.67086788    -0.11900
C1487       C  0.01722153  0.36499871  0.64934996     0.02770
C1488       C  0.99743855  0.37415181  0.63834794    -0.11320
H1489       H  0.95680790  0.35255526  0.67484333     0.08360
H1490       H  0.03017166  0.34710038  0.67935948     0.05890
H1491       H  0.99892694  0.38295362  0.62189192     0.05740
C1492       C  0.89384978  0.23257097  0.63337789     0.02780
C1493       C  0.91205877  0.23144608  0.64946344    -0.13370
C1494       C  0.92273836  0.25148552  0.65754550     0.00280
C1495       C  0.91525686  0.27281714  0.64908553    -0.11900
C1496       C  0.89544760  0.27460114  0.63513788     0.02770
C1497       C  0.88533432  0.25431682  0.62627960    -0.11320
H1498       H  0.91772765  0.21474319  0.65588354     0.08360
H1499       H  0.92359323  0.28842618  0.65510754     0.05890
H1500       H  0.87090885  0.25546110  0.61440457     0.05740
C1501       C  0.11511420  0.35829386  0.77243063     0.02780
C1502       C  0.09684162  0.34227055  0.77413679    -0.13370
C1503       C  0.08743235  0.33199895  0.75431169     0.00280
C1504       C  0.09649099  0.33799111  0.73279988    -0.11900
C1505       C  0.11467431  0.35374512  0.73065564     0.02770
C1506       C  0.12418962  0.36384011  0.75058985    -0.11320
H1507       H  0.08963006  0.33831845  0.79087114     0.08360
H1508       H  0.08916552  0.33048272  0.71729791     0.05890
H1509       H  0.13822822  0.37606279  0.74911567     0.05740
C1510       C  0.09777541  0.27267760  0.87014785     0.02780
C1511       C  0.07527060  0.27320144  0.86108420    -0.13370
C1512       C  0.06561610  0.25340851  0.85157611     0.00280
C1513       C  0.07554763  0.23194486  0.85697422    -0.11900
C1514       C  0.09642582  0.23065963  0.86935370     0.02770
C1515       C  0.10800033  0.25120233  0.87540290    -0.11320
H1516       H  0.06722910  0.28972970  0.85738229     0.08360
H1517       H  0.06821051  0.21627279  0.84988811     0.05890
H1518       H  0.12534314  0.25043254  0.88236882     0.05740
C1519       C  0.01686463  0.13136652  0.85046426     0.02780
C1520       C  0.01731541  0.14982203  0.83451085    -0.13370
C1521       C  0.99731644  0.15833641  0.82440007     0.00280
C1522       C  0.97626258  0.14932278  0.83132301    -0.11900
C1523       C  0.97495025  0.13454226  0.85055544     0.02770
C1524       C  0.99531368  0.12409340  0.85918113    -0.11320
H1525       H  0.03361423  0.15744532  0.82955317     0.08360
H1526       H  0.96053097  0.15618942  0.82377730     0.05890
H1527       H  0.99435253  0.11117299  0.87268771     0.05740
C1528       C  0.88501203  0.14745919  0.72848937     0.02780
C1529       C  0.89772645  0.16799093  0.73033451    -0.13370
C1530       C  0.90396405  0.17677301  0.75181677     0.00280
C1531       C  0.89512750  0.16638893  0.77160855    -0.11900
C1532       C  0.88041949  0.14716317  0.77020005     0.02770
C1533       C  0.87555646  0.13735546  0.74849084    -0.11320
H1534       H  0.90454104  0.17597125  0.71485389     0.08360
H1535       H  0.90008510  0.17299800  0.78839490     0.05890
H1536       H  0.86514862  0.12188823  0.74726178     0.05740
C1537       C  0.26571333  0.11857182  0.84880790     0.02780
C1538       C  0.26342092  0.10734018  0.82748821    -0.13370
C1539       C  0.24246742  0.09785811  0.82074815     0.00280
C1540       C  0.22277108  0.10350900  0.83278881    -0.11900
C1541       C  0.22383701  0.11918433  0.85114905     0.02770
C1542       C  0.24553685  0.12537706  0.86046432    -0.11320
H1543       H  0.27872950  0.10288012  0.81787036     0.08360
H1544       H  0.20636866  0.09631761  0.82734316     0.05890
H1545       H  0.24661274  0.13496823  0.87639495     0.05740
C1546       C  0.35238311  0.97898817  0.63963065     0.02780
C1547       C  0.33302770  0.98073150  0.65383269    -0.13370
C1548       C  0.32370630  0.00215665  0.65938907     0.00280
C1549       C  0.33350168  0.02212809  0.65000582    -0.11900
C1550       C  0.35208442  0.02074231  0.63446525     0.02770
C1551       C  0.36174875  0.99903726  0.62953509    -0.11320
H1552       H  0.32581310  0.96522767  0.66151159     0.08360
H1553       H  0.32644815  0.03881482  0.65453553     0.05890
H1554       H  0.37633271  0.99776646  0.61808309     0.05740
C1555       C  0.26528757  0.88930045  0.64550098     0.02780
C1556       C  0.26546119  0.90556403  0.66340085    -0.13370
C1557       C  0.24514396  0.91212918  0.67406236     0.00280
C1558       C  0.22424325  0.90363461  0.66576502    -0.11900
C1559       C  0.22333018  0.88983185  0.64595733     0.02770
C1560       C  0.24402724  0.88147835  0.63653511    -0.11320
H1561       H  0.28171419  0.91229820  0.66981395     0.08360
H1562       H  0.20836946  0.90917241  0.67376426     0.05890
H1563       H  0.24349837  0.86915336  0.62260857     0.05740
C1564       C  0.14614589  0.97899342  0.86744519     0.02780
C1565       C  0.16369589  0.98012598  0.85101273    -0.13370
C1566       C  0.17287477  0.00124491  0.84424656     0.00280
C1567       C  0.16478331  0.02150374  0.85428804    -0.11900
C1568       C  0.14580633  0.02117291  0.86921285     0.02770
C1569       C  0.13653892  0.99964052  0.87602415    -0.11320
H1570       H  0.17008706  0.96439716  0.84325913     0.08360
H1571       H  0.17160867  0.03796898  0.84848029     0.05890
H1572       H  0.12182823  0.99897517  0.88732009     0.05740
C1573       C  0.13096221  0.89793356  0.76817402     0.02780
C1574       C  0.14432328  0.91816842  0.76816668    -0.13370
C1575       C  0.15206631  0.92800660  0.74756461     0.00280
C1576       C  0.14485733  0.91854443  0.72659769    -0.11900
C1577       C  0.12967848  0.89957470  0.72600672     0.02770
C1578       C  0.12363740  0.88858221  0.74693585    -0.11320
H1579       H  0.15046695  0.92506165  0.78444972     0.08360
H1580       H  0.15124438  0.92586517  0.71062435     0.05890
H1581       H  0.11383567  0.87269278  0.74661106     0.05740
C1582       C  0.36711121  0.10157410  0.77129457     0.02780
C1583       C  0.34879475  0.08569689  0.77312836    -0.13370
C1584       C  0.33698948  0.07872385  0.75338210     0.00280
C1585       C  0.34232598  0.08872060  0.73240958    -0.11900
C1586       C  0.36282642  0.10100672  0.72925658     0.02770
C1587       C  0.37503476  0.10838702  0.74911149    -0.11320
H1588       H  0.34340646  0.07934942  0.78986827     0.08360
H1589       H  0.33123720  0.08496983  0.71775281     0.05890
H1590       H  0.39004065  0.11934581  0.74746536     0.05740
C1591       C  0.01545403  0.88181507  0.60132962     0.02780
C1592       C  0.01389406  0.89221121  0.57931491    -0.13370
C1593       C  0.99261709  0.89901328  0.57007862     0.00280
C1594       C  0.97265103  0.89135759  0.58080977    -0.11900
C1595       C  0.97347355  0.88284249  0.60355319     0.02770
C1596       C  0.99500812  0.87786646  0.61385674    -0.11320
H1597       H  0.02953766  0.89745119  0.57063555     0.08360
H1598       H  0.95613025  0.89598761  0.57323920     0.05890
H1599       H  0.99584607  0.87286636  0.63185232     0.05740
C1600       C  0.89580219  0.02221702  0.61893679     0.02780
C1601       C  0.91336990  0.02068859  0.60251101    -0.13370
C1602       C  0.91972250  0.99931075  0.59314050     0.00280
C1603       C  0.90845406  0.97930821  0.60097703    -0.11900
C1604       C  0.89078416  0.98069147  0.61746813     0.02770
C1605       C  0.88456790  0.00217563  0.62647112    -0.11320
H1606       H  0.92127447  0.03644918  0.59620105     0.08360
H1607       H  0.91250012  0.96275930  0.59340842     0.05890
H1608       H  0.87046750  0.00339487  0.63853816     0.05740
C1609       C  0.09903665  0.97889480  0.38207239     0.02780
C1610       C  0.07996228  0.97661160  0.39663395    -0.13370
C1611       C  0.06856736  0.99602345  0.40483880     0.00280
C1612       C  0.07551824  0.01777989  0.39711176    -0.11900
C1613       C  0.09650295  0.02086021  0.38543307     0.02770
C1614       C  0.10801729  0.00106271  0.37725885    -0.11320
H1615       H  0.07444041  0.95955278  0.40210051     0.08360
H1616       H  0.06599470  0.03279267  0.40272189     0.05890
H1617       H  0.12394734  0.00267764  0.36792023     0.05740
C1618       C  0.11193031  0.89651221  0.47754873     0.02780
C1619       C  0.09740320  0.91582431  0.47941370    -0.13370
C1620       C  0.08971177  0.92342497  0.50084291     0.00280
C1621       C  0.09898171  0.91347141  0.52081643    -0.11900
C1622       C  0.11492991  0.89531503  0.51955350     0.02770
C1623       C  0.12081832  0.88617930  0.49786030    -0.11320
H1624       H  0.09031742  0.92358621  0.46384147     0.08360
H1625       H  0.09312630  0.91923347  0.53754445     0.05890
H1626       H  0.13170527  0.87104912  0.49686694     0.05740
C1627       C  0.01832332  0.11926360  0.40015319     0.02780
C1628       C  0.01924638  0.10322980  0.41846052    -0.13370
C1629       C  0.99914777  0.09292060  0.42678449     0.00280
C1630       C  0.97797215  0.09951211  0.41719797    -0.11900
C1631       C  0.97675900  0.11436866  0.39796465     0.02770
C1632       C  0.99708281  0.12434030  0.38939980    -0.11320
H1633       H  0.03581226  0.09807705  0.42554775     0.08360
H1634       H  0.96232247  0.09139391  0.42333927     0.05890
H1635       H  0.99647596  0.13540034  0.37427254     0.05740
C1636       C  0.88583053  0.10354314  0.52020552     0.02780
C1637       C  0.89696768  0.08192043  0.51859556    -0.13370
C1638       C  0.90439339  0.07354611  0.49744894     0.00280
C1639       C  0.89715496  0.08468812  0.47741627    -0.11900
C1640       C  0.88312244  0.10435861  0.47825857     0.02770
C1641       C  0.87837996  0.11461568  0.49966520    -0.11320
H1642       H  0.90214103  0.07276898  0.53415075     0.08360
H1643       H  0.90248295  0.07803806  0.46083224     0.05890
H1644       H  0.86966343  0.13108838  0.50006444     0.05740
C1645       C  0.13099386  0.13295702  0.38522294     0.00210
C1646       C  0.11224648  0.11871736  0.38436854     0.00210
C1647       C  0.12766907  0.87249406  0.63222021     0.00210
C1648       C  0.11267171  0.87307555  0.61384671     0.00210
C1649       C  0.87821692  0.13632929  0.63168494     0.00210
C1650       C  0.87916770  0.11800270  0.61684336     0.00210
C1651       C  0.11160334  0.13320815  0.87010142     0.00210
C1652       C  0.12986891  0.11821557  0.87183825     0.00210
C1653       C  0.36163276  0.13368655  0.61704201     0.00210
C1654       C  0.36636715  0.11413974  0.62995969     0.00210
C1655       C  0.37590425  0.12449032  0.88520171     0.00210
C1656       C  0.36358612  0.11969247  0.86540394     0.00210
C1657       C  0.13195170  0.38207784  0.88408452     0.00210
C1658       C  0.13283408  0.36652737  0.86616379     0.00210
C1659       C  0.12869870  0.35892093  0.61516430     0.00210
C1660       C  0.11404601  0.36174486  0.63338858     0.00210
C1661       C  0.37986418  0.38409596  0.61934895     0.00210
C1662       C  0.36389714  0.36669419  0.61705018     0.00210
C1663       C  0.38028736  0.12695874  0.36627958     0.00210
C1664       C  0.36454970  0.12431590  0.38369439     0.00210
C1665       C  0.11911725  0.38193866  0.36490772     0.00210
C1666       C  0.11574993  0.36690709  0.38306696     0.00210
C1667       C  0.63050871  0.11776094  0.36817511     0.00210
C1668       C  0.61333671  0.13375789  0.37102309     0.00210
C1669       C  0.38187838  0.11669499  0.11707014     0.00210
C1670       C  0.38192606  0.13531579  0.13149277     0.00210
C1671       C  0.62927750  0.36599660  0.11448225     0.00210
C1672       C  0.61442949  0.36548618  0.13275644     0.00210
C1673       C  0.62856011  0.38106163  0.38596188     0.00210
C1674       C  0.62505927  0.36698237  0.36715554     0.00210
C1675       C  0.36202373  0.38593590  0.12947410     0.00210
C1676       C  0.37937048  0.37045363  0.12511420     0.00210
C1677       C  0.87918781  0.13537758  0.11992465     0.00210
C1678       C  0.88068049  0.11534687  0.13286192     0.00210
C1679       C  0.62998292  0.13313302  0.88641964     0.00210
C1680       C  0.61068197  0.11942262  0.88728654     0.00210
C1681       C  0.61140446  0.86817124  0.11613705     0.00210
C1682       C  0.62941720  0.86985025  0.13165237     0.00210
C1683       C  0.88117235  0.38391116  0.12224268     0.00210
C1684       C  0.86419476  0.36716456  0.12185677     0.00210
C1685       C  0.36153066  0.62539337  0.36356499     0.00210
C1686       C  0.38031566  0.62201345  0.37772780     0.00210
C1687       C  0.11187426  0.37139860  0.11589874     0.00210
C1688       C  0.12954005  0.37101209  0.13188760     0.00210
C1689       C  0.12836521  0.63400879  0.89114705     0.00210
C1690       C  0.11412178  0.61512686  0.89026296     0.00210
C1691       C  0.87359732  0.63049213  0.13321216     0.00210
C1692       C  0.86749327  0.61512963  0.11606808     0.00210
C1693       C  0.12859781  0.87387122  0.11205545     0.00210
C1694       C  0.11224940  0.87302091  0.12903369     0.00210
C1695       C  0.11538863  0.63529537  0.36889792     0.00210
C1696       C  0.13020773  0.61684800  0.36935021     0.00210
C1697       C  0.12106877  0.86601724  0.36520686     0.00210
C1698       C  0.11654658  0.88358517  0.38022278     0.00210
C1699       C  0.36219953  0.86894659  0.11383403     0.00210
C1700       C  0.37898388  0.88552005  0.11129628     0.00210
C1701       C  0.86471789  0.11436746  0.36510545     0.00210
C1702       C  0.88117337  0.11328616  0.38202652     0.00210
C1703       C  0.37732561  0.61969299  0.13053574     0.00210
C1704       C  0.38094309  0.63702024  0.11455663     0.00210
C1705       C  0.87612009  0.86477665  0.13104642     0.00210
C1706       C  0.86112407  0.88315818  0.13091928     0.00210
C1707       C  0.86348904  0.87105103  0.61988202     0.00210
C1708       C  0.87801764  0.88815104  0.62769480     0.00210
C1709       C  0.86371166  0.62893771  0.86883164     0.00210
C1710       C  0.87910064  0.63322719  0.88654925     0.00210
C1711       C  0.63184971  0.86848793  0.86648910     0.00210
C1712       C  0.63228610  0.88275206  0.88559887     0.00210
C1713       C  0.37895322  0.63676668  0.62887433     0.00210
C1714       C  0.38184637  0.61792722  0.61471373     0.00210
C1715       C  0.86387993  0.13127808  0.88420850     0.00210
C1716       C  0.87850173  0.13040905  0.86572306     0.00210
C1717       C  0.62917343  0.63470716  0.37865031     0.00210
C1718       C  0.61511730  0.61579142  0.37908427     0.00210
C1719       C  0.61418047  0.63261604  0.87569037     0.00210
C1720       C  0.63233659  0.61765708  0.87375843     0.00210
C1721       C  0.61096836  0.86300307  0.63411298     0.00210
C1722       C  0.62758736  0.86288345  0.61745316     0.00210
C1723       C  0.63148019  0.37992730  0.63296277     0.00210
C1724       C  0.61471402  0.38019843  0.61617640     0.00210
C1725       C  0.12711558  0.86507174  0.88042653     0.00210
C1726       C  0.13044216  0.88213694  0.86435765     0.00210
C1727       C  0.86264119  0.63713025  0.61785461     0.00210
C1728       C  0.86283184  0.62083346  0.63521020     0.00210
C1729       C  0.87384216  0.11256794  0.45589500    -0.06480
C1730       C  0.86250396  0.09566069  0.44296480    -0.17610
C1731       C  0.86485945  0.09482606  0.41907720     0.10720
C1732       C  0.87495038  0.11373374  0.40721047    -0.06400
C1733       C  0.88165423  0.13312782  0.42028066    -0.17640
C1734       C  0.88249695  0.13220412  0.44445023     0.10750
S1735       S  0.85945022  0.06731435  0.40605015    -0.32600
S1736       S  0.89656225  0.15552841  0.45938511    -0.32610
H1737       H  0.90911612  0.14148897  0.47481332     0.28760
H1738       H  0.84333336  0.05934426  0.42226294     0.28760
H1739       H  0.85589458  0.08061994  0.45196973     0.19350
H1740       H  0.88830534  0.14833708  0.41176759     0.19350
C1741       C  0.88532786  0.11448414  0.54351030    -0.06480
C1742       C  0.90475324  0.11071576  0.55758986    -0.17610
C1743       C  0.90350777  0.11192668  0.58139043     0.10720
C1744       C  0.88353985  0.12124082  0.59170071    -0.06400
C1745       C  0.86583649  0.12973935  0.57726000    -0.17640
C1746       C  0.86593185  0.12534676  0.55333615     0.10750
S1747       S  0.92753065  0.09904760  0.59681910    -0.32600
S1748       S  0.84017027  0.13103915  0.53674765    -0.32610
H1749       H  0.83125125  0.14769170  0.55183041     0.28760
H1750       H  0.92487648  0.11081622  0.61758077     0.28760
H1751       H  0.92047777  0.10406885  0.55016259     0.19350
H1752       H  0.85065989  0.13712033  0.58504309     0.19350
C1753       C  0.95423639  0.11617981  0.38582635    -0.06480
C1754       C  0.94355941  0.09531700  0.37994757    -0.17610
C1755       C  0.91980464  0.09399444  0.37638417     0.10720
C1756       C  0.90640115  0.11435293  0.37693042    -0.06400
C1757       C  0.91785498  0.13573582  0.37846756    -0.17640
C1758       C  0.94146801  0.13684502  0.38388134     0.10750
S1759       S  0.90708138  0.06577249  0.37385258    -0.32600
S1760       S  0.95353423  0.16474647  0.39034101    -0.32610
H1761       H  0.96753074  0.15724732  0.40879545     0.28760
H1762       H  0.92754948  0.05325430  0.37065482     0.28760
H1763       H  0.95358673  0.07955877  0.38078433     0.19350
H1764       H  0.90797480  0.15156958  0.37802877     0.19350
C1765       C  0.04037025  0.12811758  0.39117864    -0.06480
C1766       C  0.04878597  0.11879543  0.37067643    -0.17610
C1767       C  0.07241318  0.11899269  0.36606074     0.10720
C1768       C  0.08802611  0.12780693  0.38268630    -0.06400
C1769       C  0.07903788  0.14070426  0.40099587    -0.17640
C1770       C  0.05541468  0.14083638  0.40546183     0.10750
S1771       S  0.08169907  0.10695770  0.33913933    -0.32600
S1772       S  0.04574439  0.15519345  0.43113970    -0.32610
H1773       H  0.02272923  0.15779390  0.42382672     0.28760
H1774       H  0.10246725  0.11946103  0.33844291     0.28760
H1775       H  0.03720165  0.10969815  0.35914251     0.19350
H1776       H  0.09040119  0.14853721  0.41346213     0.19350
C1777       C  0.11447458  0.88635948  0.45412242    -0.06480
C1778       C  0.09410170  0.88336176  0.44129053    -0.17610
C1779       C  0.09442832  0.88099051  0.41743815     0.10720
C1780       C  0.11560868  0.87960840  0.40578267    -0.06400
C1781       C  0.13607623  0.87904216  0.41896503    -0.17640
C1782       C  0.13579719  0.88320920  0.44289706     0.10750
S1783       S  0.06718368  0.88224249  0.40267434    -0.32600
S1784       S  0.16309678  0.88647725  0.45744355    -0.32610
H1785       H  0.15626261  0.90499517  0.47137100     0.28760
H1786       H  0.06551014  0.85809951  0.40112620     0.28760
H1787       H  0.07757711  0.88507144  0.44969949     0.19350
H1788       H  0.15245662  0.87777897  0.41024305     0.19350
C1789       C  0.12067418  0.87405876  0.58921079    -0.06480
C1790       C  0.13250335  0.89380858  0.58150459    -0.17610
C1791       C  0.13407580  0.89930182  0.55809622     0.10720
C1792       C  0.12298006  0.88522088  0.54167909    -0.06400
C1793       C  0.11355768  0.86413862  0.54888413    -0.17640
C1794       C  0.11259450  0.85824854  0.57237823     0.10750
S1795       S  0.14802563  0.92606651  0.55036222    -0.32600
S1796       S  0.09972721  0.83085250  0.57952842    -0.32610
H1797       H  0.11030545  0.82856605  0.60126555     0.28760
H1798       H  0.15246649  0.91995353  0.52737335     0.28760
H1799       H  0.13857033  0.90646491  0.59361755     0.19350
H1800       H  0.10521058  0.85307144  0.53634309     0.19350
C1801       C  0.11424089  0.09307807  0.38671964    -0.06480
C1802       C  0.12172369  0.07987337  0.36788851    -0.17610
C1803       C  0.11705831  0.05593854  0.36666800     0.10720
C1804       C  0.10670834  0.04469232  0.38572264    -0.06400
C1805       C  0.10317467  0.05755949  0.40587757    -0.17640
C1806       C  0.10495517  0.08142661  0.40605120     0.10750
S1807       S  0.12205917  0.04099903  0.33996746    -0.32600
S1808       S  0.09337855  0.09542369  0.43123114    -0.32610
H1809       H  0.10650737  0.11557645  0.42974925     0.28760
H1810       H  0.13433039  0.05884795  0.32899960     0.28760
H1811       H  0.12896425  0.08874641  0.35315041     0.19350
H1812       H  0.09678890  0.04913014  0.42130340     0.19350
C1813       C  0.11523421  0.90864581  0.37320534    -0.06480
C1814       C  0.13164280  0.92332395  0.38357814    -0.17610
C1815       C  0.12854688  0.94722320  0.38441317     0.10720
C1816       C  0.10923145  0.95720243  0.37352553    -0.06400
C1817       C  0.09489880  0.94317372  0.35999593    -0.17640
C1818       C  0.09708811  0.91909276  0.36015256     0.10750
S1819       S  0.14769906  0.96351980  0.40262977    -0.32600
S1820       S  0.07473543  0.90394261  0.34471187    -0.32610
H1821       H  0.07654377  0.88353378  0.35707220     0.28760
H1822       H  0.15143670  0.98088206  0.38608629     0.28760
H1823       H  0.14618646  0.91601007  0.39281643     0.19350
H1824       H  0.08003222  0.95087642  0.35152631     0.19350
C1825       C  0.87803581  0.95956829  0.62392895    -0.06480
C1826       C  0.88227579  0.94931727  0.64552693    -0.17610
C1827       C  0.87732919  0.92587518  0.64924555     0.10720
C1828       C  0.86896011  0.91234624  0.63075210    -0.06400
C1829       C  0.86048492  0.92393898  0.61103815    -0.17640
C1830       C  0.86509797  0.94733535  0.60736582     0.10750
S1831       S  0.88570813  0.91306071  0.67638259    -0.32600
S1832       S  0.85658334  0.95986010  0.58003333    -0.32610
H1833       H  0.85630020  0.98285751  0.58767534     0.28760
H1834       H  0.87104926  0.89385247  0.67412716     0.28760
H1835       H  0.89143756  0.95889939  0.65870938     0.19350
H1836       H  0.85295365  0.91444844  0.59703192     0.19350
C1837       C  0.88722510  0.04529361  0.62517461    -0.06480
C1838       C  0.86782667  0.05373640  0.61350353    -0.17610
C1839       C  0.86272774  0.07731688  0.61324388     0.10720
C1840       C  0.87759011  0.09311394  0.62469169    -0.06400
C1841       C  0.89495119  0.08387699  0.63919311    -0.17640
C1842       C  0.90018417  0.06022488  0.63916013     0.10750
S1843       S  0.83769355  0.08583097  0.59675511    -0.32600
S1844       S  0.92473550  0.04946822  0.65521487    -0.32610
H1845       H  0.93027932  0.07030148  0.66631197     0.28760
H1846       H  0.83430995  0.10670075  0.60818223     0.28760
H1847       H  0.85748995  0.04207317  0.60315724     0.19350
H1848       H  0.90645724  0.09519504  0.64828725     0.19350
C1849       C  0.03888173  0.87986540  0.61188928    -0.06480
C1850       C  0.05284849  0.89965544  0.61116539    -0.17610
C1851       C  0.07685004  0.89813347  0.61281140     0.10720
C1852       C  0.08730859  0.87646074  0.61718598    -0.06400
C1853       C  0.07308757  0.85725222  0.62135468    -0.17640
C1854       C  0.04911946  0.85854415  0.61797593     0.10750
S1855       S  0.09370053  0.92383003  0.60741036    -0.32600
S1856       S  0.03307933  0.83199731  0.61832797    -0.32610
H1857       H  0.01724083  0.83981329  0.63468310     0.28760
H1858       H  0.07534439  0.93965832  0.60665207     0.28760
H1859       H  0.04497323  0.91610820  0.60693198     0.19350
H1860       H  0.08077023  0.84069286  0.62538567     0.19350
C1861       C  0.95194402  0.88511405  0.61701555    -0.06480
C1862       C  0.94131690  0.86611972  0.62772065    -0.17610
C1863       C  0.91804020  0.86734914  0.63464710     0.10720
C1864       C  0.90424974  0.88646716  0.62733803    -0.06400
C1865       C  0.91609252  0.90580485  0.61837874    -0.17640
C1866       C  0.93967978  0.90600171  0.61551833     0.10750
S1867       S  0.90841037  0.84556586  0.65462279    -0.32600
S1868       S  0.95299033  0.93338237  0.60857699    -0.32610
H1869       H  0.97516292  0.92714452  0.61632225     0.28760
H1870       H  0.88946476  0.85819371  0.66260602     0.28760
H1871       H  0.95109054  0.85044942  0.63073745     0.19350
H1872       H  0.90716697  0.92127431  0.61309045     0.19350
C1873       C  0.37030633  0.10399102  0.70475095    -0.06480
C1874       C  0.37900952  0.12482361  0.69567162    -0.17610
C1875       C  0.38042293  0.12825486  0.67135194     0.10720
C1876       C  0.36856209  0.11275353  0.65626446    -0.06400
C1877       C  0.35997664  0.09233869  0.66641069    -0.17640
C1878       C  0.36462892  0.08646188  0.68897470     0.10750
S1879       S  0.39969833  0.15011843  0.66061336    -0.32600
S1880       S  0.36252462  0.05613524  0.69651209    -0.32610
H1881       H  0.37641057  0.05776347  0.71643638     0.28760
H1882       H  0.40682317  0.15862318  0.68219229     0.28760
H1883       H  0.38510143  0.13796589  0.70741317     0.19350
H1884       H  0.35088795  0.07950427  0.65652524     0.19350
C1885       C  0.37537782  0.11205661  0.79309222    -0.06480
C1886       C  0.38873332  0.09860037  0.80838822    -0.17610
C1887       C  0.38812405  0.10213714  0.83241401     0.10720
C1888       C  0.37316957  0.11934467  0.84135008    -0.06400
C1889       C  0.36250589  0.13461712  0.82556017    -0.17640
C1890       C  0.36357010  0.13129421  0.80180338     0.10750
S1891       S  0.40550833  0.08271844  0.84980002    -0.32600
S1892       S  0.34632464  0.14999793  0.78370641    -0.32610
H1893       H  0.36150543  0.14959092  0.76497183     0.28760
H1894       H  0.39395330  0.08482290  0.87073774     0.28760
H1895       H  0.39797127  0.08383238  0.80176299     0.19350
H1896       H  0.35169984  0.14840923  0.83190727     0.19350
C1897       C  0.12846495  0.88563034  0.79063615    -0.06480
C1898       C  0.14897586  0.87946938  0.80201011    -0.17610
C1899       C  0.14981967  0.87609038  0.82585897     0.10720
C1900       C  0.12938865  0.87770462  0.83893169    -0.06400
C1901       C  0.10834336  0.88059695  0.82707672    -0.17640
C1902       C  0.10771383  0.88512964  0.80320285     0.10750
S1903       S  0.17805682  0.87210065  0.83835389    -0.32600
S1904       S  0.08054205  0.89341855  0.79057475    -0.32610
H1905       H  0.08351359  0.88074838  0.77029393     0.28760
H1906       H  0.17075009  0.86194012  0.85893682     0.28760
H1907       H  0.16498873  0.87962888  0.79250323     0.19350
H1908       H  0.09249886  0.88144238  0.83676706     0.19350
C1909       C  0.12191666  0.89079984  0.70311369    -0.06480
C1910       C  0.12567183  0.86759111  0.69735404    -0.17610
C1911       C  0.12411979  0.86019387  0.67435107     0.10720
C1912       C  0.11980389  0.87641796  0.65649906    -0.06400
C1913       C  0.11360051  0.89893550  0.66271650    -0.17640
C1914       C  0.11389395  0.90606300  0.68568704     0.10750
S1915       S  0.12829179  0.82998832  0.66886417    -0.32600
S1916       S  0.10487381  0.93527312  0.69144860    -0.32610
H1917       H  0.09813115  0.93096311  0.71433170     0.28760
H1918       H  0.11646486  0.83005389  0.64761358     0.28760
H1919       H  0.13101518  0.85540102  0.71059333     0.19350
H1920       H  0.11011850  0.91166907  0.64954997     0.19350
C1921       C  0.13828567  0.95557507  0.87407180    -0.06480
C1922       C  0.15494375  0.94056615  0.88346793    -0.17610
C1923       C  0.15285074  0.91650375  0.88155881     0.10720
C1924       C  0.13297933  0.90708063  0.87084491    -0.06400
C1925       C  0.11522526  0.92222599  0.86392763    -0.17640
C1926       C  0.11782628  0.94618302  0.86497824     0.10750
S1927       S  0.17671983  0.89877946  0.89098548    -0.32600
S1928       S  0.09601235  0.96374610  0.85137728    -0.32610
H1929       H  0.09302457  0.97778205  0.87077356     0.28760
H1930       H  0.18845670  0.91590497  0.90353536     0.28760
H1931       H  0.17081955  0.94787441  0.89009973     0.19350
H1932       H  0.09953331  0.91545050  0.85646298     0.19350
C1933       C  0.12682991  0.09231666  0.87179354    -0.06480
C1934       C  0.12936096  0.08015255  0.89277635    -0.17610
C1935       C  0.13411302  0.05628977  0.89334236     0.10720
C1936       C  0.13377872  0.04365572  0.87255186    -0.06400
C1937       C  0.12733150  0.05520733  0.85219398    -0.17640
C1938       C  0.12557654  0.07927087  0.85123049     0.10750
S1939       S  0.14344484  0.04414418  0.92053558    -0.32600
S1940       S  0.12581121  0.09231887  0.82307774    -0.32610
H1941       H  0.11778977  0.07305193  0.81072100     0.28760
H1942       H  0.13714134  0.02129968  0.91607445     0.28760
H1943       H  0.12948239  0.08955270  0.90880152     0.19350
H1944       H  0.12718787  0.04556620  0.83623001     0.19350
C1945       C  0.20033006  0.88539460  0.63554545    -0.06480
C1946       C  0.19268824  0.86269759  0.63190634    -0.17610
C1947       C  0.16924587  0.85806255  0.62778407     0.10720
C1948       C  0.15296047  0.87616075  0.62911108    -0.06400
C1949       C  0.16103300  0.89886906  0.63118882    -0.17640
C1950       C  0.18442679  0.90371825  0.63281423     0.10750
S1951       S  0.16117567  0.82897265  0.62110894    -0.32600
S1952       S  0.19282700  0.93374208  0.63200253    -0.32610
H1953       H  0.21521884  0.92966220  0.62386586     0.28760
H1954       H  0.14945760  0.83581148  0.60095980     0.28760
H1955       H  0.20480173  0.84850977  0.63307397     0.19350
H1956       H  0.14892165  0.91307722  0.63168445     0.19350
C1957       C  0.36009549  0.04246827  0.62335214    -0.06480
C1958       C  0.34312843  0.05601360  0.61272148    -0.17610
C1959       C  0.34525861  0.08002073  0.61165374     0.10720
C1960       C  0.36629666  0.09065561  0.61845442    -0.06400
C1961       C  0.38523451  0.07611999  0.62345156    -0.17640
C1962       C  0.38199168  0.05234267  0.62744503     0.10750
S1963       S  0.31913403  0.09604817  0.60702704    -0.32600
S1964       S  0.40523163  0.03660132  0.64097630    -0.32610
H1965       H  0.39142732  0.02527100  0.65733559     0.28760
H1966       H  0.30355763  0.07845075  0.61308544     0.28760
H1967       H  0.32668747  0.04810723  0.60866127     0.19350
H1968       H  0.40142264  0.08386870  0.62869567     0.19350
C1969       C  0.15423848  0.12653692  0.86997587    -0.06480
C1970       C  0.16187567  0.13309562  0.84804512    -0.17610
C1971       C  0.18508806  0.13563944  0.84321893     0.10720
C1972       C  0.20159649  0.12805987  0.85955108    -0.06400
C1973       C  0.19450043  0.12336357  0.88214423    -0.17640
C1974       C  0.17097525  0.12361014  0.88769722     0.10750
S1975       S  0.19260318  0.14599256  0.81478730    -0.32600
S1976       S  0.16346455  0.12053145  0.91747191    -0.32610
H1977       H  0.14899326  0.13992607  0.91655426     0.28760
H1978       H  0.21505459  0.15295089  0.82085507     0.28760
H1979       H  0.15002195  0.13478602  0.83385999     0.19350
H1980       H  0.20708836  0.11841433  0.89514529     0.19350
C1981       C  0.28936013  0.11880693  0.85908759    -0.06480
C1982       C  0.30209877  0.09840436  0.85642093    -0.17610
C1983       C  0.32593152  0.09826108  0.85747912     0.10720
C1984       C  0.33777254  0.11785363  0.86608367    -0.06400
C1985       C  0.32472256  0.13749466  0.87200533    -0.17640
C1986       C  0.30084108  0.13855830  0.86756694     0.10750
S1987       S  0.33923076  0.07314638  0.84491130    -0.32600
S1988       S  0.28669791  0.16593117  0.87116844    -0.32610
H1989       H  0.27266269  0.16406867  0.85140115     0.28760
H1990       H  0.35946758  0.07375475  0.85768706     0.28760
H1991       H  0.29350428  0.08280995  0.85066676     0.19350
H1992       H  0.33354430  0.15287444  0.87791663     0.19350
C1993       C  0.87148174  0.13800695  0.79231471    -0.06480
C1994       C  0.86061454  0.15404859  0.80650306    -0.17610
C1995       C  0.86149797  0.15196448  0.83052769     0.10720
C1996       C  0.87066881  0.13161166  0.84086684    -0.06400
C1997       C  0.87795036  0.11380875  0.82609288    -0.17640
C1998       C  0.87932132  0.11710722  0.80214654     0.10750
S1999       S  0.85568820  0.17783974  0.84636571    -0.32600
S2000       S  0.89364293  0.09521886  0.78561033    -0.32610
H2001       H  0.90758984  0.11062469  0.77312595     0.28760
H2002       H  0.84121295  0.18836862  0.82980939     0.28760
H2003       H  0.85488531  0.17018549  0.79882549     0.19350
H2004       H  0.88509229  0.09813020  0.83335317     0.19350
C2005       C  0.88313586  0.13699296  0.70528542    -0.06480
C2006       C  0.86142233  0.13352317  0.69514225    -0.17610
C2007       C  0.85908808  0.13085155  0.67116497     0.10720
C2008       C  0.87889238  0.13263996  0.65710208    -0.06400
C2009       C  0.90060973  0.13415390  0.66762166    -0.17640
C2010       C  0.90299403  0.13495207  0.69153127     0.10750
S2011       S  0.83038662  0.12617501  0.66003783    -0.32600
S2012       S  0.93151597  0.13435457  0.70431754    -0.32610
H2013       H  0.94359763  0.12988620  0.68388239     0.28760
H2014       H  0.83471861  0.13156777  0.63697150     0.28760
H2015       H  0.84613617  0.13440492  0.70569807     0.19350
H2016       H  0.91578930  0.13508215  0.65691946     0.19350
C2017       C  0.95219170  0.13292016  0.86203370    -0.06480
C2018       C  0.94153465  0.11147070  0.86564722    -0.17610
C2019       C  0.91771760  0.11009438  0.86995429     0.10720
C2020       C  0.90407397  0.13044009  0.86879547    -0.06400
C2021       C  0.91515754  0.15162550  0.86573035    -0.17640
C2022       C  0.93895889  0.15321608  0.86483023     0.10750
S2023       S  0.90573854  0.08178706  0.87452399    -0.32600
S2024       S  0.95129370  0.18185739  0.86586998    -0.32610
H2025       H  0.97310209  0.17457464  0.87377590     0.28760
H2026       H  0.88706268  0.08926966  0.88756638     0.28760
H2027       H  0.95147855  0.09575549  0.86397407     0.19350
H2028       H  0.90520239  0.16720831  0.86327180     0.19350
C2029       C  0.03975879  0.12121770  0.85672530    -0.06480
C2030       C  0.05538248  0.11982814  0.83847536    -0.17610
C2031       C  0.07836773  0.12546911  0.84198072     0.10720
C2032       C  0.08775400  0.12470297  0.86466915    -0.06400
C2033       C  0.07272013  0.11897496  0.88283338    -0.17640
C2034       C  0.04866940  0.11943264  0.87942806     0.10750
S2035       S  0.09180277  0.13833795  0.81708922    -0.32600
S2036       S  0.03081842  0.12019825  0.90460445    -0.32610
H2037       H  0.01857288  0.13994144  0.89737839     0.28760
H2038       H  0.11410742  0.13593851  0.82477696     0.28760
H2039       H  0.04882028  0.11995120  0.82089362     0.19350
H2040       H  0.07935736  0.11681458  0.90013384     0.19350
C2041       C  0.10707418  0.20761460  0.87244236    -0.06480
C2042       C  0.10133371  0.19448381  0.89191714    -0.17610
C2043       C  0.10512580  0.17053436  0.89270653     0.10720
C2044       C  0.11416153  0.15902503  0.87317469    -0.06400
C2045       C  0.12193485  0.17288269  0.85473211    -0.17640
C2046       C  0.11853924  0.19678210  0.85415343     0.10750
S2047       S  0.09753741  0.15607269  0.91917790    -0.32600
S2048       S  0.12710823  0.21212277  0.82842219    -0.32610
H2049       H  0.13124493  0.23337652  0.83920992     0.28760
H2050       H  0.11033033  0.13594111  0.91543687     0.28760
H2051       H  0.09275332  0.20277397  0.90618817     0.19350
H2052       H  0.12964937  0.16544205  0.83982663     0.19350
C2053       C  0.11117006  0.29451326  0.86864167    -0.06480
C2054       C  0.12485340  0.30281366  0.88688061    -0.17610
C2055       C  0.13423753  0.32542062  0.88598800     0.10720
C2056       C  0.12654136  0.34109624  0.86848912    -0.06400
C2057       C  0.11326993  0.33176758  0.85033218    -0.17640
C2058       C  0.10849004  0.30854219  0.84892089     0.10750
S2059       S  0.15769395  0.33243286  0.90521109    -0.32600
S2060       S  0.10002232  0.29774555  0.82090743    -0.32610
H2061       H  0.10809323  0.27513669  0.82482418     0.28760
H2062       H  0.15834990  0.31123550  0.91716786     0.28760
H2063       H  0.12855551  0.29152378  0.90138067     0.19350
H2064       H  0.10739263  0.34215186  0.83598062     0.19350
C2065       C  0.12437046  0.36883995  0.79389077    -0.06480
C2066       C  0.14518020  0.36050239  0.80306679    -0.17610
C2067       C  0.15071108  0.36327076  0.82653197     0.10720
C2068       C  0.13500574  0.37458304  0.84136452    -0.06400
C2069       C  0.11591220  0.38584074  0.83110371    -0.17640
C2070       C  0.11052482  0.38311984  0.80767567     0.10750
S2071       S  0.17599546  0.34829268  0.83707303    -0.32600
S2072       S  0.08410647  0.39582469  0.79705294    -0.32610
H2073       H  0.09063639  0.39655882  0.77374931     0.28760
H2074       H  0.17565447  0.35630448  0.85984449     0.28760
H2075       H  0.15605150  0.34972297  0.79250081     0.19350
H2076       H  0.10304007  0.39379355  0.84168613     0.19350
C2077       C  0.12261503  0.35897081  0.70691217    -0.06480
C2078       C  0.12967252  0.34015183  0.69363904    -0.17610
C2079       C  0.12874900  0.34087828  0.66950011     0.10720
C2080       C  0.12216559  0.36152903  0.65805549    -0.06400
C2081       C  0.11808666  0.38127758  0.67146146    -0.17640
C2082       C  0.11761580  0.38008779  0.69565660     0.10750
S2083       S  0.13233116  0.31417620  0.65428434    -0.32600
S2084       S  0.10815611  0.40534939  0.71091006    -0.32610
H2085       H  0.09362575  0.39353335  0.72625617     0.28760
H2086       H  0.14218236  0.30139673  0.67255782     0.28760
H2087       H  0.13320191  0.32390834  0.70233102     0.19350
H2088       H  0.11304858  0.39723497  0.66305182     0.19350
C2089       C  0.88486472  0.21025819  0.62464404    -0.06480
C2090       C  0.90087005  0.19604623  0.61373472    -0.17610
C2091       C  0.89907833  0.17193011  0.61468244     0.10720
C2092       C  0.87927961  0.16143537  0.62445365    -0.06400
C2093       C  0.86181530  0.17615272  0.63260841    -0.17640
C2094       C  0.86462260  0.20018718  0.63338442     0.10750
S2095       S  0.92467447  0.15605716  0.60803137    -0.32600
S2096       S  0.84361486  0.21654266  0.64906125    -0.32610
H2097       H  0.84272570  0.23475307  0.63302177     0.28760
H2098       H  0.93466351  0.17276968  0.59349938     0.28760
H2099       H  0.91671736  0.20381875  0.60770311     0.19350
H2100       H  0.84668780  0.16891089  0.64055540     0.19350
C2101       C  0.04021934  0.36388202  0.63815974    -0.06480
C2102       C  0.05204544  0.38416513  0.63205026    -0.17610
C2103       C  0.07595016  0.38385629  0.62776189     0.10720
C2104       C  0.08843514  0.36292280  0.63062543    -0.06400
C2105       C  0.07616322  0.34278852  0.63597081    -0.17640
C2106       C  0.05232538  0.34272099  0.63787650     0.10750
S2107       S  0.08932361  0.41112503  0.62073795    -0.32600
S2108       S  0.03846548  0.31496183  0.64111254    -0.32610
H2109       H  0.01693056  0.32218758  0.63243519     0.28760
H2110       H  0.11194922  0.40334925  0.61803260     0.28760
H2111       H  0.04294540  0.40049307  0.63195184     0.19350
H2112       H  0.08522295  0.32683127  0.63939202     0.19350
C2113       C  0.20410582  0.12657535  0.38899002    -0.06480
C2114       C  0.19090068  0.11453279  0.40517964    -0.17610
C2115       C  0.16684723  0.11392913  0.40364225     0.10720
C2116       C  0.15558796  0.12473989  0.38463965    -0.06400
C2117       C  0.16935624  0.13320352  0.36650057    -0.17640
C2118       C  0.19332603  0.13504687  0.36882356     0.10750
S2119       S  0.15169888  0.10193007  0.42782566    -0.32600
S2120       S  0.20867353  0.15054086  0.34669097    -0.32610
H2121       H  0.22327104  0.16278294  0.36170568     0.28760
H2122       H  0.17026395  0.08969431  0.43771557     0.28760
H2123       H  0.19939459  0.10795852  0.42057612     0.19350
H2124       H  0.16124810  0.14076600  0.35138553     0.19350
C2125       C  0.29148076  0.13436064  0.38502757    -0.06480
C2126       C  0.29985388  0.11321564  0.37676473    -0.17610
C2127       C  0.32360683  0.11006718  0.37276149     0.10720
C2128       C  0.33929513  0.12768037  0.37948629    -0.06400
C2129       C  0.33030288  0.14899187  0.38631484    -0.17640
C2130       C  0.30686589  0.15317915  0.38645356     0.10750
S2131       S  0.33228078  0.08286805  0.36057387    -0.32600
S2132       S  0.29773321  0.18279586  0.38995963    -0.32610
H2133       H  0.27557237  0.17944943  0.38055605     0.28760
H2134       H  0.35592924  0.08719701  0.35948929     0.28760
H2135       H  0.28814172  0.09883559  0.37450581     0.19350
H2136       H  0.34158185  0.16262546  0.39215810     0.19350
C2137       C  0.13302138  0.29369842  0.38247839    -0.06480
C2138       C  0.12094553  0.30284290  0.36344564    -0.17610
C2139       C  0.11250680  0.32572924  0.36382591     0.10720
C2140       C  0.11960026  0.34089397  0.38186440    -0.06400
C2141       C  0.13069093  0.33058219  0.40109741    -0.17640
C2142       C  0.13494211  0.30716084  0.40243093     0.10750
S2143       S  0.09061865  0.33281758  0.34288934    -0.32600
S2144       S  0.14248798  0.29529632  0.43035175    -0.32610
H2145       H  0.13424561  0.27291410  0.42584157     0.28760
H2146       H  0.07883621  0.34757920  0.35779868     0.28760
H2147       H  0.11755245  0.29201841  0.34863273     0.19350
H2148       H  0.13581923  0.34043714  0.41595494     0.19350
C2149       C  0.13509867  0.20679490  0.38179793    -0.06480
C2150       C  0.13371389  0.19566576  0.40332327    -0.17610
C2151       C  0.13121469  0.17171261  0.40500512     0.10720
C2152       C  0.12823335  0.15860983  0.38476210    -0.06400
C2153       C  0.12662608  0.17010725  0.36339252    -0.17640
C2154       C  0.13059388  0.19396655  0.36162265     0.10750
S2155       S  0.13387255  0.15804154  0.43296436    -0.32600
S2156       S  0.13281454  0.20623321  0.33311792    -0.32610
H2157       H  0.12358761  0.22781100  0.33875922     0.28760
H2158       H  0.13448634  0.17832802  0.44616511     0.28760
H2159       H  0.13712945  0.20556312  0.41877077     0.19350
H2160       H  0.12426957  0.16013677  0.34779995     0.19350
C2161       C  0.29027310  0.37397342  0.60707224    -0.06480
C2162       C  0.30537574  0.38042171  0.58938431    -0.17610
C2163       C  0.32895388  0.37673721  0.59146488     0.10720
C2164       C  0.33877587  0.37239304  0.61357094    -0.06400
C2165       C  0.32367009  0.37095790  0.63252423    -0.17640
C2166       C  0.29964581  0.36984549  0.62926544     0.10750
S2167       S  0.34338535  0.37349771  0.56423536    -0.32600
S2168       S  0.28248398  0.36078724  0.65339645    -0.32610
H2169       H  0.26982673  0.34432009  0.64085991     0.28760
H2170       H  0.36546815  0.37153260  0.57298965     0.28760
H2171       H  0.29840364  0.38417542  0.57234942     0.19350
H2172       H  0.33047785  0.36847437  0.64973552     0.19350
C2173       C  0.15436738  0.35866293  0.61859936    -0.06480
C2174       C  0.16584432  0.37962970  0.62326084    -0.17610
C2175       C  0.18951643  0.38230173  0.61864090     0.10720
C2176       C  0.20241779  0.36299825  0.61144818    -0.06400
C2177       C  0.19156464  0.34134523  0.61100671    -0.17640
C2178       C  0.16770911  0.33929096  0.61232604     0.10750
S2179       S  0.20151596  0.41091571  0.62026555    -0.32600
S2180       S  0.15497789  0.31266439  0.60240441    -0.32610
H2181       H  0.17523913  0.29944049  0.60127056     0.28760
H2182       H  0.21597070  0.40876116  0.60107829     0.28760
H2183       H  0.15582559  0.39469206  0.62779145     0.19350
H2184       H  0.20158838  0.32640212  0.60613857     0.19350
C2185       C  0.36145496  0.13884517  0.54280300    -0.06480
C2186       C  0.34081083  0.14139322  0.55491756    -0.17610
C2187       C  0.34023193  0.14032843  0.57881145     0.10720
C2188       C  0.35978913  0.13210578  0.59120275    -0.06400
C2189       C  0.37965466  0.12621941  0.57864350    -0.17640
C2190       C  0.38091093  0.13024749  0.55472961     0.10750
S2191       S  0.31486900  0.15298927  0.59143338    -0.32600
S2192       S  0.40824651  0.12687557  0.54091931    -0.32610
H2193       H  0.40079664  0.10735443  0.52863043     0.28760
H2194       H  0.31622963  0.14188045  0.61261857     0.28760
H2195       H  0.32554108  0.14746561  0.54584596     0.19350
H2196       H  0.39499314  0.12061254  0.58784543     0.19350
C2197       C  0.37087721  0.13940302  0.45567323    -0.06480
C2198       C  0.36162151  0.11813260  0.44899347    -0.17610
C2199       C  0.36198871  0.11118654  0.42585638     0.10720
C2200       C  0.37138594  0.12603647  0.40873780    -0.06400
C2201       C  0.38215902  0.14647286  0.41611832    -0.17640
C2202       C  0.38266574  0.15287510  0.43924414     0.10750
S2203       S  0.34843167  0.08405997  0.41934570    -0.32600
S2204       S  0.39685744  0.17964813  0.44642288    -0.32610
H2205       H  0.40135963  0.17381475  0.46961530     0.28760
H2206       H  0.36181825  0.07964164  0.39991784     0.28760
H2207       H  0.35262601  0.10761186  0.46155456     0.19350
H2208       H  0.38831555  0.15887424  0.40377576     0.19350
C2209       C  0.35351280  0.20654832  0.62532212    -0.06480
C2210       C  0.34056865  0.19188175  0.63964648    -0.17610
C2211       C  0.34427759  0.16783393  0.64014150     0.10720
C2212       C  0.36130118  0.15819235  0.62552851    -0.06400
C2213       C  0.37605824  0.17352715  0.61374024    -0.17640
C2214       C  0.37225440  0.19728645  0.61327070     0.10750
S2215       S  0.32551419  0.15124901  0.65867141    -0.32600
S2216       S  0.38978350  0.21437238  0.59415420    -0.32610
H2217       H  0.39251488  0.23279680  0.60954173     0.28760
H2218       H  0.32722877  0.12986594  0.64778081     0.28760
H2219       H  0.32628505  0.19901667  0.64918043     0.19350
H2220       H  0.38970461  0.16670308  0.60312015     0.19350
C2221       C  0.35809114  0.29360729  0.62230879    -0.06480
C2222       C  0.37037536  0.30289266  0.60374327    -0.17610
C2223       C  0.37616239  0.32640936  0.60270397     0.10720
C2224       C  0.36915095  0.34132869  0.62070341    -0.06400
C2225       C  0.36044703  0.33093593  0.64091768    -0.17640
C2226       C  0.35432080  0.30750407  0.64177053     0.10750
S2227       S  0.39228770  0.33623595  0.57813248    -0.32600
S2228       S  0.34019309  0.29729131  0.66752791    -0.32610
H2229       H  0.33091074  0.27672000  0.65888675     0.28760
H2230       H  0.39611773  0.31462248  0.56792531     0.28760
H2231       H  0.37392790  0.29186498  0.58917460     0.19350
H2232       H  0.35642575  0.34151383  0.65562435     0.19350
C2233       C  0.12337813  0.35744118  0.54147177    -0.06480
C2234       C  0.11116158  0.34093525  0.55415956    -0.17610
C2235       C  0.11008035  0.34180492  0.57826574     0.10720
C2236       C  0.12114363  0.36016227  0.59024982    -0.06400
C2237       C  0.13053171  0.37831400  0.57698110    -0.17640
C2238       C  0.13231578  0.37689531  0.55294915     0.10750
S2239       S  0.09597520  0.31760639  0.59167164    -0.32600
S2240       S  0.14802207  0.39943410  0.53831055    -0.32610
H2241       H  0.15934710  0.38500862  0.52264676     0.28760
H2242       H  0.10945650  0.31745435  0.61159603     0.28760
H2243       H  0.10405495  0.32608730  0.54529411     0.19350
H2244       H  0.13865010  0.39276954  0.58557173     0.19350
C2245       C  0.12168172  0.36956025  0.45502393    -0.06480
C2246       C  0.10031918  0.36357792  0.44532315    -0.17610
C2247       C  0.09588235  0.36718114  0.42172215     0.10720
C2248       C  0.11339044  0.37608830  0.40734804    -0.06400
C2249       C  0.13296620  0.38579484  0.41807669    -0.17640
C2250       C  0.13726420  0.38258861  0.44167500     0.10750
S2251       S  0.06906873  0.35682466  0.41001066    -0.32600
S2252       S  0.16440353  0.39270281  0.45311210    -0.32610
H2253       H  0.15731382  0.39351224  0.47623402     0.28760
H2254       H  0.06945892  0.37162616  0.39068190     0.28760
H2255       H  0.08796550  0.35405868  0.45557288     0.19350
H2256       H  0.14653897  0.39317095  0.40788791     0.19350
C2257       C  0.38160035  0.29696557  0.13309754    -0.06480
C2258       C  0.37383400  0.30602989  0.11188994    -0.17610
C2259       C  0.36976346  0.32990523  0.10911589     0.10720
C2260       C  0.37540030  0.34508226  0.12745846    -0.06400
C2261       C  0.38135641  0.33552385  0.14893844    -0.17640
C2262       C  0.38259511  0.31182059  0.15235322     0.10750
S2263       S  0.35795295  0.33933531  0.08179467    -0.32600
S2264       S  0.38625719  0.30168280  0.18170576    -0.32610
H2265       H  0.37700543  0.27958841  0.17772306     0.28760
H2266       H  0.35672176  0.36289924  0.08665556     0.28760
H2267       H  0.37193743  0.29471225  0.09719298     0.19350
H2268       H  0.38512610  0.34673123  0.16336815     0.19350
C2269       C  0.38033399  0.16024819  0.12374418    -0.06480
C2270       C  0.36272934  0.17366681  0.13364751    -0.17610
C2271       C  0.36418153  0.19778643  0.13481463     0.10720
C2272       C  0.38280553  0.20923159  0.12435754    -0.06400
C2273       C  0.39819207  0.19631765  0.11117836    -0.17640
C2274       C  0.39785593  0.17210666  0.11143734     0.10750
S2275       S  0.34391739  0.21244421  0.15295246    -0.32600
S2276       S  0.42236557  0.15789872  0.09924683    -0.32610
H2277       H  0.42940930  0.17609472  0.08473451     0.28760
H2278       H  0.34193114  0.23203172  0.13874974     0.28760
H2279       H  0.34871119  0.16526652  0.14254125     0.19350
H2280       H  0.41264111  0.20522716  0.10343737     0.19350
C2281       C  0.54035146  0.36605660  0.13346891    -0.06480
C2282       C  0.55232819  0.34503368  0.13206931    -0.17610
C2283       C  0.57633723  0.34435710  0.13118553     0.10720
C2284       C  0.58884916  0.36511022  0.12882415    -0.06400
C2285       C  0.57661011  0.38599486  0.12637540    -0.17640
C2286       C  0.55260636  0.38680568  0.12965665     0.10750
S2287       S  0.59064738  0.31696853  0.13533272    -0.32600
S2288       S  0.53916411  0.41478155  0.13085960    -0.32610
H2289       H  0.52430308  0.40944747  0.14915167     0.28760
H2290       H  0.57093211  0.30287840  0.13458443     0.28760
H2291       H  0.54290854  0.32907614  0.13455281     0.19350
H2292       H  0.58604732  0.40199257  0.12423350     0.19350
C2293       C  0.45266865  0.37636991  0.13568347    -0.06480
C2294       C  0.44419174  0.36898525  0.11428501    -0.17610
C2295       C  0.42050060  0.37000241  0.10914051     0.10720
C2296       C  0.40460976  0.37721489  0.12612714    -0.06400
C2297       C  0.41373719  0.38671622  0.14649498    -0.17640
C2298       C  0.43735546  0.38711544  0.15104273     0.10750
S2299       S  0.41165215  0.36182570  0.08064675    -0.32600
S2300       S  0.44678410  0.39971191  0.17792242    -0.32610
H2301       H  0.46945381  0.40423654  0.17078727     0.28760
H2302       H  0.39386287  0.37828781  0.07958563     0.28760
H2303       H  0.45583907  0.36125028  0.10203549     0.19350
H2304       H  0.40267313  0.39269118  0.15984121     0.19350
C2305       C  0.61101731  0.20718544  0.36396175    -0.06480
C2306       C  0.61597578  0.19779937  0.38582251    -0.17610
C2307       C  0.62013168  0.17396434  0.38864142     0.10720
C2308       C  0.61769946  0.15911532  0.36939749    -0.06400
C2309       C  0.61426484  0.16908005  0.34754952    -0.17640
C2310       C  0.61273146  0.19280698  0.34447851     0.10750
S2311       S  0.62747936  0.16396785  0.41722235    -0.32600
S2312       S  0.61152634  0.20357668  0.31517458    -0.32610
H2313       H  0.61939433  0.22591349  0.32050524     0.28760
H2314       H  0.63455456  0.14181741  0.41094735     0.28760
H2315       H  0.61542351  0.20879623  0.40085627     0.19350
H2316       H  0.61242814  0.15819896  0.33254419     0.19350
C2317       C  0.60686171  0.29499580  0.37045773    -0.06480
C2318       C  0.63029844  0.30107901  0.36958308    -0.17610
C2319       C  0.63707980  0.32447332  0.37057664     0.10720
C2320       C  0.62001160  0.34187171  0.37027777    -0.06400
C2321       C  0.59684310  0.33543080  0.37136685    -0.17640
C2322       C  0.59046748  0.31257295  0.37420192     0.10750
S2323       S  0.66720536  0.33193152  0.37132833    -0.32600
S2324       S  0.56098191  0.30694988  0.38228964    -0.32610
H2325       H  0.56541905  0.28500816  0.39190245     0.28760
H2326       H  0.67562227  0.30917660  0.37241737     0.28760
H2327       H  0.64308631  0.28774445  0.36716490     0.19350
H2328       H  0.58351800  0.34845087  0.37137971     0.19350
C2329       C  0.45367961  0.13299246  0.36389512    -0.06480
C2330       C  0.44381372  0.11095380  0.36580489    -0.17610
C2331       C  0.42010495  0.10843122  0.36999007     0.10720
C2332       C  0.40576606  0.12816847  0.37063636    -0.06400
C2333       C  0.41625594  0.14999766  0.37023810    -0.17640
C2334       C  0.43996734  0.15249453  0.36855007     0.10750
S2335       S  0.40871635  0.07980515  0.37292990    -0.32600
S2336       S  0.45153146  0.18140056  0.37035080    -0.32610
H2337       H  0.47393464  0.17453902  0.37676585     0.28760
H2338       H  0.40006890  0.08476473  0.39489527     0.28760
H2339       H  0.45425285  0.09578997  0.36277158     0.19350
H2340       H  0.40611597  0.16553449  0.37034152     0.19350
C2341       C  0.54075119  0.12706027  0.35716908    -0.06480
C2342       C  0.54830177  0.12976382  0.38005602    -0.17610
C2343       C  0.57192465  0.12898234  0.38563413     0.10720
C2344       C  0.58838831  0.12723671  0.36782935    -0.06400
C2345       C  0.58032873  0.12283696  0.34543126    -0.17640
C2346       C  0.55701744  0.12115279  0.34028398     0.10750
S2347       S  0.57985890  0.13064205  0.41555730    -0.32600
S2348       S  0.54916886  0.11310126  0.31119877    -0.32610
H2349       H  0.52704579  0.10501440  0.31681104     0.28760
H2350       H  0.60021308  0.11779427  0.41314741     0.28760
H2351       H  0.53594358  0.13356245  0.39341427     0.19350
H2352       H  0.59189466  0.12201457  0.33131069     0.19350
C2353       C  0.37468112  0.13924216  0.29320927    -0.06480
C2354       C  0.36464361  0.15499694  0.30835588    -0.17610
C2355       C  0.36522310  0.15157543  0.33219700     0.10720
C2356       C  0.37360024  0.13032385  0.34140420    -0.06400
C2357       C  0.38078092  0.11328469  0.32574633    -0.17640
C2358       C  0.38224654  0.11777111  0.30199892     0.10750
S2359       S  0.35790434  0.17680553  0.34862781    -0.32600
S2360       S  0.39623492  0.09645709  0.28446623    -0.32610
H2361       H  0.40976389  0.11236036  0.27212653     0.28760
H2362       H  0.36980161  0.17106453  0.36872193     0.28760
H2363       H  0.35882635  0.17154810  0.30165929     0.19350
H2364       H  0.38745061  0.09705777  0.33221874     0.19350
C2365       C  0.38109182  0.13613767  0.20551764    -0.06480
C2366       C  0.40214398  0.13470831  0.19382403    -0.17610
C2367       C  0.40289190  0.13402010  0.16977805     0.10720
C2368       C  0.38222630  0.13176564  0.15706669    -0.06400
C2369       C  0.36134029  0.12947377  0.16900647    -0.17640
C2370       C  0.36048814  0.13240874  0.19302865     0.10750
S2371       S  0.43013418  0.13854273  0.15564457    -0.32600
S2372       S  0.33269146  0.13443772  0.20625043    -0.32610
H2373       H  0.33775916  0.11770573  0.22315640     0.28760
H2374       H  0.44416863  0.13782632  0.17551393     0.28760
H2375       H  0.41797553  0.13735568  0.20345442     0.19350
H2376       H  0.34541444  0.12750517  0.15936513     0.19350
C2377       C  0.61590276  0.36820405  0.29431768    -0.06480
C2378       C  0.59853795  0.37762840  0.30817167    -0.17610
C2379       C  0.60174124  0.38079175  0.33202317     0.10720
C2380       C  0.62303268  0.37444249  0.34245618    -0.06400
C2381       C  0.64096882  0.36721384  0.32796146    -0.17640
C2382       C  0.63770170  0.36408707  0.30426231     0.10750
S2383       S  0.57711588  0.39115950  0.34775924    -0.32600
S2384       S  0.66089759  0.35138867  0.28833163    -0.32610
H2385       H  0.66082220  0.36870726  0.27128280     0.28760
H2386       H  0.58619224  0.38996325  0.37010618     0.28760
H2387       H  0.58170924  0.38090613  0.30062592     0.19350
H2388       H  0.65736032  0.36228952  0.33542956     0.19350
C2389       C  0.62161665  0.36685363  0.15780950    -0.06480
C2390       C  0.61194103  0.38495347  0.17070875    -0.17610
C2391       C  0.60983223  0.38360314  0.19474242     0.10720
C2392       C  0.61873194  0.36427929  0.20667076    -0.06400
C2393       C  0.63135342  0.34791394  0.19435852    -0.17640
C2394       C  0.63259510  0.34862448  0.17018137     0.10750
S2395       S  0.59250081  0.40517141  0.20857850    -0.32600
S2396       S  0.64570002  0.32435548  0.15626205    -0.32610
H2397       H  0.65754356  0.31550280  0.17563915     0.28760
H2398       H  0.60628525  0.40657585  0.22847890     0.28760
H2399       H  0.60400069  0.39942303  0.16184948     0.20310
H2400       H  0.63802322  0.33302269  0.20362578     0.19350
C2401       C  0.70402887  0.11409278  0.37326836    -0.06480
C2402       C  0.69438115  0.12847490  0.35631878    -0.17610
C2403       C  0.67063199  0.13272704  0.35519646     0.10720
C2404       C  0.65589589  0.12255580  0.37196531    -0.06400
C2405       C  0.66647970  0.11142762  0.39100899    -0.17640
C2406       C  0.69012659  0.10658816  0.39160146     0.10750
S2407       S  0.66053995  0.14981277  0.33114568    -0.32600
S2408       S  0.70070719  0.08853093  0.41479903    -0.32610
H2409       H  0.72409911  0.09394987  0.41250448     0.28760
H2410       H  0.68192971  0.15866664  0.32407623     0.28760
H2411       H  0.70533227  0.13441701  0.34244557     0.19350
H2412       H  0.65605218  0.10478734  0.40487804     0.19350
C2413       C  0.79171006  0.10599154  0.37484177    -0.06480
C2414       C  0.80609548  0.08664909  0.37307032    -0.17610
C2415       C  0.82891195  0.08932685  0.36695773     0.10720
C2416       C  0.83988585  0.11079031  0.37071282    -0.06400
C2417       C  0.82634081  0.12940469  0.37840237    -0.17640
C2418       C  0.80212050  0.12775453  0.37847957     0.10750
S2419       S  0.84102636  0.06539498  0.35141097    -0.32600
S2420       S  0.78585559  0.15400205  0.38120542    -0.32610
H2421       H  0.77092172  0.14925034  0.36262735     0.28760
H2422       H  0.86327532  0.06851052  0.35947535     0.28760
H2423       H  0.79848784  0.06962914  0.37125998     0.19350
H2424       H  0.83434807  0.14584485  0.38205190     0.19350
C2425       C  0.63200295  0.88382112  0.20383384    -0.06480
C2426       C  0.62734241  0.86113555  0.19675029    -0.17610
C2427       C  0.62285168  0.85622474  0.17343961     0.10720
C2428       C  0.62506978  0.87395482  0.15671042    -0.06400
C2429       C  0.62711021  0.89681983  0.16426481    -0.17640
C2430       C  0.62921870  0.90199152  0.18759876     0.10750
S2431       S  0.61490352  0.82722257  0.16613177    -0.32600
S2432       S  0.62893749  0.93212936  0.19544043    -0.32610
H2433       H  0.62161188  0.92834290  0.21823446     0.28760
H2434       H  0.59334303  0.83401256  0.15735137     0.28760
H2435       H  0.62817470  0.84708646  0.20914791     0.19350
H2436       H  0.62759286  0.91079039  0.15174558     0.19350
C2437       C  0.62111017  0.04458360  0.35776975    -0.06480
C2438       C  0.61659099  0.06010055  0.33960361    -0.17610
C2439       C  0.62131034  0.08349855  0.34192633     0.10720
C2440       C  0.62429938  0.09288652  0.36428475    -0.06400
C2441       C  0.62317549  0.07766047  0.38334933    -0.17640
C2442       C  0.62359409  0.05359331  0.38024193     0.10750
S2443       S  0.62730425  0.09825546  0.31512602    -0.32600
S2444       S  0.62977965  0.03581553  0.40508437    -0.32610
H2445       H  0.64720639  0.02305983  0.39428569     0.28760
H2446       H  0.62779376  0.12041981  0.32380946     0.28760
H2447       H  0.61403518  0.05339933  0.32233227     0.19350
H2448       H  0.62433850  0.08435219  0.40067790     0.19350
C2449       C  0.69985065  0.89214505  0.12210504    -0.06480
C2450       C  0.69525001  0.87037862  0.13159392    -0.17610
C2451       C  0.67272993  0.86185579  0.13302510     0.10720
C2452       C  0.65385355  0.87531435  0.12487590    -0.06400
C2453       C  0.65869487  0.89648788  0.11391607    -0.17640
C2454       C  0.68136331  0.90480273  0.11213712     0.10750
S2455       S  0.66953103  0.83387678  0.14619714    -0.32600
S2456       S  0.68551457  0.93227900  0.09797257    -0.32610
H2457       H  0.70868822  0.92850316  0.09220662     0.28760
H2458       H  0.65005996  0.82775639  0.13321404     0.28760
H2459       H  0.70917792  0.86050253  0.13935209     0.19350
H2460       H  0.64463010  0.90719704  0.10772703     0.19350
C2461       C  0.78717898  0.88984876  0.13088541    -0.06480
C2462       C  0.79864531  0.88785125  0.10975802    -0.17610
C2463       C  0.82239061  0.88270945  0.10891812     0.10720
C2464       C  0.83530297  0.88036693  0.12974073    -0.06400
C2465       C  0.82314895  0.88044155  0.15061179    -0.17640
C2466       C  0.79941384  0.88430685  0.15134527     0.10750
S2467       S  0.83496317  0.88041448  0.08067810    -0.32600
S2468       S  0.78591244  0.88332255  0.17928722    -0.32610
H2469       H  0.76377774  0.87780195  0.17097236     0.28760
H2470       H  0.85668591  0.87256376  0.08776398     0.28760
H2471       H  0.78937566  0.89157352  0.09387810     0.19350
H2472       H  0.83213172  0.87842637  0.16681315     0.19350
C2473       C  0.86961573  0.95644076  0.13860796    -0.06480
C2474       C  0.87590700  0.94178657  0.15692888    -0.17610
C2475       C  0.87487906  0.91777063  0.15492984     0.10720
C2476       C  0.86914426  0.90770734  0.13335140    -0.06400
C2477       C  0.86632293  0.92255065  0.11421084    -0.17640
C2478       C  0.86570098  0.94664171  0.11669033     0.10750
S2479       S  0.87904394  0.90207997  0.18151137    -0.32600
S2480       S  0.85741557  0.96354090  0.09179738    -0.32610
H2481       H  0.84159370  0.97744858  0.10358791     0.28760
H2482       H  0.86813764  0.88182950  0.17487673     0.28760
H2483       H  0.87929540  0.94918814  0.17375713     0.19350
H2484       H  0.86256078  0.91539315  0.09746166     0.19350
C2485       C  0.88084287  0.09148838  0.12252986    -0.06480
C2486       C  0.89816567  0.07668113  0.13120173    -0.17610
C2487       C  0.89398830  0.05314739  0.13496330     0.10720
C2488       C  0.87239048  0.04373597  0.12892209    -0.06400
C2489       C  0.85674372  0.05751094  0.11640286    -0.17640
C2490       C  0.86063029  0.08130252  0.11311486     0.10750
S2491       S  0.91499436  0.03725596  0.15161403    -0.32600
S2492       S  0.83781561  0.09852151  0.10061275    -0.32610
H2493       H  0.82444627  0.08009180  0.09222102     0.28760
H2494       H  0.91481293  0.01804191  0.13699536     0.28760
H2495       H  0.91372580  0.08416455  0.13841888     0.19350
H2496       H  0.84029582  0.05012184  0.11152309     0.19350
C2497       C  0.86163810  0.11786894  0.29211551    -0.06480
C2498       C  0.85706424  0.13776680  0.30486488    -0.17610
C2499       C  0.86150721  0.13843416  0.32862989     0.10720
C2500       C  0.87003641  0.11854845  0.34013985    -0.06400
C2501       C  0.87797849  0.10017900  0.32664438    -0.17640
C2502       C  0.87336941  0.09933676  0.30290575     0.10750
S2503       S  0.85555067  0.16505136  0.34330492    -0.32600
S2504       S  0.88041430  0.07303295  0.28802964    -0.32610
H2505       H  0.88321332  0.08309116  0.26614936     0.28760
H2506       H  0.86963449  0.16032107  0.36257568     0.28760
H2507       H  0.84880451  0.15240420  0.29651259     0.19350
H2508       H  0.88606176  0.08544503  0.33470426     0.19350
C2509       C  0.86539352  0.11474745  0.20585095    -0.06480
C2510       C  0.87992875  0.13221572  0.19746832    -0.17610
C2511       C  0.88830739  0.13121180  0.17469105     0.10720
C2512       C  0.87848905  0.11501633  0.15900593    -0.06400
C2513       C  0.86571975  0.09671101  0.16872332    -0.17640
C2514       C  0.86173206  0.09518801  0.19206515     0.10750
S2515       S  0.91320402  0.14852631  0.16814097    -0.32600
S2516       S  0.85200369  0.06769118  0.20323325    -0.32610
H2517       H  0.86013273  0.07129079  0.22585538     0.28760
H2518       H  0.91999145  0.13541343  0.14901632     0.28760
H2519       H  0.88509754  0.14621854  0.20866736     0.19350
H2520       H  0.85882926  0.08289195  0.15842425     0.19350
C2521       C  0.45247848  0.87704736  0.10378196    -0.06480
C2522       C  0.43794077  0.87408508  0.08456139    -0.17610
C2523       C  0.41413321  0.87670024  0.08614618     0.10720
C2524       C  0.40379244  0.87853720  0.10816082    -0.06400
C2525       C  0.41825769  0.87691970  0.12777834    -0.17640
C2526       C  0.44236350  0.87767551  0.12585123     0.10750
S2527       S  0.39945985  0.88044415  0.05885968    -0.32600
S2528       S  0.45879895  0.88218329  0.15189840    -0.32610
H2529       H  0.47213888  0.90027226  0.14273854     0.28760
H2530       H  0.37734993  0.88236147  0.06731778     0.28760
H2531       H  0.44547183  0.87296646  0.06754052     0.19350
H2532       H  0.41090552  0.87752302  0.14481403     0.19350
C2533       C  0.53959541  0.87714715  0.11627126    -0.06480
C2534       C  0.54853485  0.85561944  0.11002527    -0.17610
C2535       C  0.57177815  0.85014312  0.11408444     0.10720
C2536       C  0.58671446  0.86664527  0.12423473    -0.06400
C2537       C  0.57669594  0.88660110  0.13375031    -0.17640
C2538       C  0.55340836  0.89199379  0.12981376     0.10750
S2539       S  0.58233318  0.82344310  0.10246078    -0.32600
S2540       S  0.54304189  0.91940334  0.14005787    -0.32610
H2541       H  0.51964907  0.91312667  0.14048352     0.28760
H2542       H  0.60183344  0.82227936  0.11686705     0.28760
H2543       H  0.53797128  0.84388850  0.10000956     0.19350
H2544       H  0.58751966  0.89982512  0.14113432     0.19350
C2545       C  0.37533919  0.91114143  0.11442450    -0.06480
C2546       C  0.38673190  0.92141341  0.13333337    -0.17610
C2547       C  0.39281451  0.94478689  0.13336799     0.10720
C2548       C  0.38706452  0.95872936  0.11423488    -0.06400
C2549       C  0.37314721  0.94950268  0.09674862    -0.17640
C2550       C  0.36686857  0.92603644  0.09672692     0.10750
S2551       S  0.41029575  0.95498685  0.15701977    -0.32600
S2552       S  0.34847247  0.91607342  0.07371475    -0.32610
H2553       H  0.34415303  0.93761440  0.06321995     0.28760
H2554       H  0.40135956  0.97748545  0.15712776     0.28760
H2555       H  0.39241857  0.91087180  0.14770331     0.19350
H2556       H  0.36827895  0.96055677  0.08239027     0.19350
C2557       C  0.39067113  0.04485541  0.12391418    -0.06480
C2558       C  0.36958089  0.05319932  0.11550138    -0.17610
C2559       C  0.36425583  0.07670731  0.11690510     0.10720
C2560       C  0.38075867  0.09227744  0.12592296    -0.06400
C2561       C  0.39966288  0.08308910  0.13815152    -0.17640
C2562       C  0.40485995  0.05955956  0.13709569     0.10750
S2563       S  0.33664031  0.08599856  0.10602379    -0.32600
S2564       S  0.43114027  0.04972454  0.15068619    -0.32610
H2565       H  0.42445610  0.02644596  0.15262147     0.28760
H2566       H  0.33625164  0.10663635  0.11869965     0.28760
H2567       H  0.35804112  0.04175370  0.10625426     0.19350
H2568       H  0.41202341  0.09436127  0.14624232     0.19350
C2569       C  0.40200758  0.12661152  0.88664912    -0.06480
C2570       C  0.41237022  0.11689856  0.90650985    -0.17610
C2571       C  0.43533972  0.11999405  0.91156897     0.10720
C2572       C  0.45046128  0.12619285  0.89369452    -0.06400
C2573       C  0.44097782  0.13650815  0.87375519    -0.17640
C2574       C  0.41680493  0.13884386  0.87126077     0.10750
S2575       S  0.44432490  0.11507762  0.94117015    -0.32600
S2576       S  0.40677477  0.15972031  0.85041673    -0.32610
H2577       H  0.38599222  0.16433010  0.86180975     0.28760
H2578       H  0.46466736  0.12817662  0.93952318     0.28760
H2579       H  0.40246572  0.10771456  0.91927022     0.19350
H2580       H  0.45226114  0.14318822  0.86051044     0.19350
C2581       C  0.53815858  0.13185710  0.88594977    -0.06480
C2582       C  0.55132066  0.14321051  0.90274392    -0.17610
C2583       C  0.57541769  0.14167966  0.90298889     0.10720
C2584       C  0.58673908  0.12913798  0.88534216    -0.06400
C2585       C  0.57345656  0.12144938  0.86651168    -0.17640
C2586       C  0.54941697  0.12252889  0.86670649     0.10750
S2587       S  0.58944241  0.15362451  0.92798533    -0.32600
S2588       S  0.53395119  0.10826474  0.84380727    -0.32610
H2589       H  0.51356769  0.12104992  0.84629473     0.28760
H2590       H  0.60735582  0.13758940  0.92883232     0.28760
H2591       H  0.54270099  0.15041425  0.91758079     0.19350
H2592       H  0.58175543  0.11250963  0.85247104     0.19350
C2593       C  0.38417904  0.11072448  0.04320227    -0.06480
C2594       C  0.40420481  0.10770046  0.05659978    -0.17610
C2595       C  0.40410756  0.10978906  0.08039367     0.10720
C2596       C  0.38440453  0.11874796  0.09150419    -0.06400
C2597       C  0.36533467  0.12520516  0.07780919    -0.17640
C2598       C  0.36445804  0.12003449  0.05408157     0.10750
S2599       S  0.42978656  0.09950473  0.09494971    -0.32600
S2600       S  0.33700190  0.12323067  0.03979736    -0.32610
H2601       H  0.33890538  0.10279991  0.02696266     0.28760
H2602       H  0.42755447  0.11303906  0.11460160     0.28760
H2603       H  0.42001332  0.10199099  0.04862303     0.19350
H2604       H  0.35007870  0.13188150  0.08607752     0.19350
C2605       C  0.36891068  0.11702879  0.95662759    -0.06480
C2606       C  0.35720740  0.10107017  0.94291690    -0.17610
C2607       C  0.35652872  0.10360181  0.91895354     0.10720
C2608       C  0.36434183  0.12448059  0.90858253    -0.06400
C2609       C  0.37035683  0.14283730  0.92340229    -0.17640
C2610       C  0.37415015  0.13886657  0.94709715     0.10750
S2611       S  0.35116343  0.07772474  0.90290870    -0.32600
S2612       S  0.38986835  0.16032472  0.96301198    -0.32610
H2613       H  0.37371614  0.16118705  0.98086852     0.28760
H2614       H  0.35942630  0.06206993  0.91970130     0.28760
H2615       H  0.35243002  0.08462588  0.95053458     0.19350
H2616       H  0.37651920  0.15886591  0.91592273     0.19350
C2617       C  0.62037082  0.87935312  0.95643422    -0.06480
C2618       C  0.60348678  0.87021910  0.94160317    -0.17610
C2619       C  0.60809154  0.86675972  0.91816560     0.10720
C2620       C  0.62999205  0.87270927  0.90936160    -0.06400
C2621       C  0.64775293  0.87809486  0.92507281    -0.17640
C2622       C  0.64312526  0.88176270  0.94839696     0.10750
S2623       S  0.58420589  0.86004874  0.89952990    -0.32600
S2624       S  0.66621508  0.89283357  0.96610717    -0.32610
H2625       H  0.65334018  0.91074002  0.97598153     0.28760
H2626       H  0.58876844  0.83621104  0.90080357     0.28760
H2627       H  0.58600947  0.86819022  0.94771867     0.19350
H2628       H  0.66457243  0.88276731  0.91853774     0.19350
C2629       C  0.61357462  0.87318739  0.09040933    -0.06480
C2630       C  0.59556102  0.88616565  0.08029521    -0.17610
C2631       C  0.59378925  0.88961372  0.05683771     0.10720
C2632       C  0.61305898  0.88569931  0.04285055    -0.06400
C2633       C  0.63147478  0.87285530  0.05214415    -0.17640
C2634       C  0.63097397  0.86495156  0.07524505     0.10750
S2635       S  0.56554948  0.89707483  0.04575049    -0.32600
S2636       S  0.65110495  0.84255866  0.08274790    -0.32610
H2637       H  0.63534721  0.83065000  0.09658642     0.28760
H2638       H  0.56832826  0.88592467  0.02445586     0.28760
H2639       H  0.58146927  0.89271416  0.09025477     0.19350
H2640       H  0.64572012  0.86812604  0.04119010     0.19350
C2641       C  0.61183335  0.09333650  0.88711950    -0.06480
C2642       C  0.61871134  0.08160552  0.86707505    -0.17610
C2643       C  0.61599810  0.05744553  0.86496574     0.10720
C2644       C  0.60712982  0.04437836  0.88359903    -0.06400
C2645       C  0.60219649  0.05599033  0.90416924    -0.17640
C2646       C  0.60305599  0.08006440  0.90570972     0.10750
S2647       S  0.62159509  0.04470517  0.83740209    -0.32600
S2648       S  0.59194437  0.09330665  0.93146061    -0.32610
H2649       H  0.58695703  0.07299799  0.94387191     0.28760
H2650       H  0.63699180  0.02823202  0.84639537     0.28760
H2651       H  0.62480126  0.09150881  0.85242771     0.19350
H2652       H  0.59565715  0.04609855  0.91861368     0.19350
C2653       C  0.61840770  0.95711489  0.88436107    -0.06480
C2654       C  0.63111058  0.94766778  0.86615845    -0.17610
C2655       C  0.63949467  0.92467378  0.86754658     0.10720
C2656       C  0.63110737  0.90945581  0.88510992    -0.06400
C2657       C  0.62062251  0.92050108  0.90411663    -0.17640
C2658       C  0.61650231  0.94402893  0.90471247     0.10750
S2659       S  0.66382688  0.91804482  0.84974664    -0.32600
S2660       S  0.60749037  0.95623401  0.93182468    -0.32610
H2661       H  0.61427383  0.97897911  0.92658104     0.28760
H2662       H  0.67171049  0.89970562  0.86375389     0.28760
H2663       H  0.63501216  0.95829268  0.85125529     0.19350
H2664       H  0.61520758  0.91122579  0.91920609     0.19350
C2665       C  0.83884574  0.37320617  0.12141823    -0.06480
C2666       C  0.82965229  0.38435168  0.10179105    -0.17610
C2667       C  0.80606933  0.38543012  0.09748557     0.10720
C2668       C  0.79082588  0.37343757  0.11201611    -0.06400
C2669       C  0.79927818  0.36399344  0.13265678    -0.17640
C2670       C  0.82295898  0.36420918  0.13779705     0.10750
S2671       S  0.79660591  0.39977674  0.07134435    -0.32600
S2672       S  0.83126435  0.35149852  0.16500877    -0.32610
H2673       H  0.85193318  0.36360936  0.16718400     0.28760
H2674       H  0.77383583  0.40341792  0.07860142     0.28760
H2675       H  0.84056810  0.39054745  0.08832726     0.19350
H2676       H  0.78760996  0.35487168  0.14402186     0.19350
C2677       C  0.70324000  0.36237657  0.10934183    -0.06480
C2678       C  0.68965957  0.34253343  0.10633603    -0.17610
C2679       C  0.66585487  0.34305698  0.10822989     0.10720
C2680       C  0.65484592  0.36297146  0.11701368    -0.06400
C2681       C  0.66878058  0.38171553  0.12377236    -0.17640
C2682       C  0.69258920  0.38215408  0.11886367     0.10750
S2683       S  0.65110604  0.31780593  0.09748651    -0.32600
S2684       S  0.70748591  0.40909598  0.12288345    -0.32610
H2685       H  0.72017054  0.40763810  0.10237859     0.28760
H2686       H  0.63141410  0.32031542  0.11078785     0.28760
H2687       H  0.69749413  0.32667536  0.10040397     0.19350
H2688       H  0.66070059  0.39708703  0.13051279     0.19350
C2689       C  0.78971652  0.13476415  0.88674376    -0.06480
C2690       C  0.80023868  0.11339959  0.88253658    -0.17610
C2691       C  0.82420034  0.11181092  0.87908497     0.10720
C2692       C  0.83817691  0.13185586  0.88131864    -0.06400
C2693       C  0.82724044  0.15300505  0.88517578    -0.17640
C2694       C  0.80340940  0.15493556  0.88573734     0.10750
S2695       S  0.83575524  0.08339515  0.87443160    -0.32600
S2696       S  0.79159024  0.18380307  0.88602960    -0.32610
H2697       H  0.77007873  0.17759962  0.87659254     0.28760
H2698       H  0.85440334  0.09064779  0.86118920     0.28760
H2699       H  0.78997909  0.09778176  0.88305954     0.19350
H2700       H  0.83723932  0.16838794  0.88819950     0.19350
C2701       C  0.70263851  0.12223663  0.88502483    -0.06480
C2702       C  0.68964721  0.10900035  0.90053878    -0.17610
C2703       C  0.66551939  0.11032940  0.90075394     0.10720
C2704       C  0.65397628  0.12376106  0.88368781    -0.06400
C2705       C  0.66713546  0.13328200  0.86565925    -0.17640
C2706       C  0.69121863  0.13323167  0.86647304     0.10750
S2707       S  0.65100857  0.09868967  0.92560498    -0.32600
S2708       S  0.70614906  0.15092216  0.84576389    -0.32610
H2709       H  0.72585837  0.13695535  0.84504354     0.28760
H2710       H  0.66887906  0.08402077  0.93315537     0.28760
H2711       H  0.69853946  0.10083848  0.91492083     0.19350
H2712       H  0.65865130  0.14313964  0.85212244     0.19350
C2713       C  0.87479584  0.13533246  0.95770436    -0.06480
C2714       C  0.88486909  0.15216612  0.94372766    -0.17610
C2715       C  0.88262540  0.15146820  0.91971526     0.10720
C2716       C  0.87222256  0.13190248  0.90893631    -0.06400
C2717       C  0.86543680  0.11345429  0.92329006    -0.17640
C2718       C  0.86631799  0.11507114  0.94736977     0.10750
S2719       S  0.88995129  0.17820676  0.90574353    -0.32600
S2720       S  0.85330769  0.09219568  0.96394040    -0.32610
H2721       H  0.86663448  0.09585249  0.98390772     0.28760
H2722       H  0.87468671  0.17556827  0.88760408     0.28760
H2723       H  0.89104723  0.16791450  0.95171487     0.19350
H2724       H  0.85751675  0.09833552  0.91581299     0.19350
C2725       C  0.87067273  0.14420908  0.04556616    -0.06480
C2726       C  0.88498433  0.12612845  0.05351168    -0.17610
C2727       C  0.89010184  0.12365064  0.07741821     0.10720
C2728       C  0.87688713  0.13624282  0.09373650    -0.06400
C2729       C  0.86224576  0.15359265  0.08486008    -0.17640
C2730       C  0.86285054  0.16010296  0.06205224     0.10750
S2731       S  0.91520098  0.10729805  0.08593774    -0.32600
S2732       S  0.85579190  0.18995983  0.05574774    -0.32610
H2733       H  0.86898135  0.19118668  0.03551238     0.28760
H2734       H  0.92157545  0.10028859  0.06369673     0.28760
H2735       H  0.89280991  0.11468185  0.04117437     0.19350
H2736       H  0.85198803  0.16428443  0.09593950     0.19350
C2737       C  0.86369320  0.20597644  0.12675934    -0.06480
C2738       C  0.84983840  0.19019068  0.13880296    -0.17610
C2739       C  0.85576599  0.16676114  0.14050547     0.10720
C2740       C  0.87675140  0.15896463  0.13070852    -0.06400
C2741       C  0.89241424  0.17579974  0.12274055    -0.17640
C2742       C  0.88581858  0.19890771  0.11980558     0.10750
S2743       S  0.83394414  0.14790444  0.15199073    -0.32600
S2744       S  0.90504301  0.21745695  0.10396088    -0.32610
H2745       H  0.88797729  0.22649887  0.08912314     0.28760
H2746       H  0.83624396  0.13089979  0.13523597     0.28760
H2747       H  0.83299566  0.19564254  0.14458590     0.19350
H2748       H  0.90852575  0.17021287  0.11527621     0.19350
C2749       C  0.86923651  0.34187306  0.11828327    -0.06480
C2750       C  0.87268271  0.32739202  0.13763084    -0.17610
C2751       C  0.86736746  0.30362829  0.13690595     0.10720
C2752       C  0.86081007  0.29338253  0.11572485    -0.06400
C2753       C  0.86144044  0.30722221  0.09578546    -0.17640
C2754       C  0.86446650  0.33109403  0.09682022     0.10750
S2755       S  0.86662491  0.28832786  0.16401942    -0.32600
S2756       S  0.85965842  0.34621983  0.06997539    -0.32610
H2757       H  0.86978938  0.36667575  0.07672817     0.28760
H2758       H  0.84615883  0.27629934  0.15903757     0.28760
H2759       H  0.87688541  0.33489889  0.15412139     0.19350
H2760       H  0.85766653  0.29957095  0.07915888     0.19350
C2761       C  0.62872773  0.15914063  0.88673868    -0.06480
C2762       C  0.62245622  0.17153911  0.86661005    -0.17610
C2763       C  0.62736592  0.19538669  0.86425681     0.10720
C2764       C  0.63683892  0.20764354  0.88316650    -0.06400
C2765       C  0.63992655  0.19556050  0.90410323    -0.17640
C2766       C  0.63816610  0.17158699  0.90546023     0.10750
S2767       S  0.62296025  0.20843701  0.83632815    -0.32600
S2768       S  0.64979308  0.15737018  0.93084749    -0.32610
H2769       H  0.66175992  0.17641033  0.93996508     0.28760
H2770       H  0.64287067  0.22222895  0.83712583     0.28760
H2771       H  0.61587506  0.16215514  0.85185649     0.19350
H2772       H  0.64599804  0.20481090  0.91914305     0.19350
C2773       C  0.62068582  0.35999610  0.04202835    -0.06480
C2774       C  0.62990289  0.38044324  0.05095645    -0.17610
C2775       C  0.62957585  0.38466280  0.07471608     0.10720
C2776       C  0.62077266  0.36767497  0.08995069    -0.06400
C2777       C  0.60817260  0.34927701  0.08044910    -0.17640
C2778       C  0.60810092  0.34525049  0.05670956     0.10750
S2779       S  0.64130565  0.41163371  0.08463085    -0.32600
S2780       S  0.59401637  0.31949688  0.04642523    -0.32610
H2781       H  0.59127069  0.32720850  0.02351264     0.28760
H2782       H  0.62870176  0.41187565  0.10526329     0.28760
H2783       H  0.63895221  0.39228293  0.03966306     0.19350
H2784       H  0.60039180  0.33649850  0.09149450     0.19350
C2785       C  0.45341141  0.61600849  0.37007399    -0.06480
C2786       C  0.43931646  0.60201503  0.35634870    -0.17610
C2787       C  0.41533276  0.60394718  0.35676437     0.10720
C2788       C  0.40494889  0.62201974  0.36962174    -0.06400
C2789       C  0.41971830  0.63861128  0.37964464    -0.17640
C2790       C  0.44360377  0.63532024  0.38085957     0.10750
S2791       S  0.40045083  0.58063999  0.34273097    -0.32600
S2792       S  0.46014151  0.65504482  0.39831578    -0.32610
H2793       H  0.47443274  0.63834045  0.40870524     0.28760
H2794       H  0.38136775  0.58072373  0.35698173     0.28760
H2795       H  0.44692171  0.58721414  0.34791961     0.19350
H2796       H  0.41248240  0.65308754  0.38879214     0.19350
C2797       C  0.54088834  0.61091867  0.38108763    -0.06480
C2798       C  0.55399670  0.60917661  0.40148999    -0.17610
C2799       C  0.57786037  0.61139597  0.40157874     0.10720
C2800       C  0.58941113  0.61780077  0.38108172    -0.06400
C2801       C  0.57600717  0.62286923  0.36133560    -0.17640
C2802       C  0.55208641  0.61857179  0.36081565     0.10750
S2803       S  0.59203492  0.60409478  0.42839170    -0.32600
S2804       S  0.53754593  0.62109576  0.33338986    -0.32610
H2805       H  0.52382614  0.60130693  0.33635697     0.28760
H2806       H  0.61123277  0.61783894  0.42466703     0.28760
H2807       H  0.54566405  0.60429641  0.41747064     0.19350
H2808       H  0.58448355  0.62820821  0.34561410     0.19350
C2809       C  0.37377503  0.45726056  0.60902469    -0.06480
C2810       C  0.37544069  0.44857273  0.63162375    -0.17610
C2811       C  0.37397466  0.42466435  0.63594380     0.10720
C2812       C  0.37290737  0.40908840  0.61720473    -0.06400
C2813       C  0.36910482  0.41834327  0.59510037    -0.17640
C2814       C  0.36768521  0.44197045  0.59117490     0.10750
S2815       S  0.37411797  0.41525253  0.66550535    -0.32600
S2816       S  0.36063131  0.45158797  0.56226174    -0.32610
H2817       H  0.35396668  0.47399658  0.56867694     0.28760
H2818       H  0.36214516  0.39462109  0.66124525     0.28760
H2819       H  0.37919588  0.46020146  0.64572607     0.19350
H2820       H  0.36884152  0.40755513  0.58026372     0.19350
C2821       C  0.38197510  0.54442838  0.61448083    -0.06480
C2822       C  0.39710932  0.55559807  0.62980147    -0.17610
C2823       C  0.39586473  0.57955455  0.63356282     0.10720
C2824       C  0.37938527  0.59282272  0.62093183    -0.06400
C2825       C  0.36224661  0.58078703  0.60849800    -0.17640
C2826       C  0.36350269  0.55701438  0.60484866     0.10750
S2827       S  0.41595892  0.59108954  0.65451544    -0.32600
S2828       S  0.34178929  0.54435354  0.58636239    -0.32610
H2829       H  0.35501909  0.52634433  0.57729489     0.28760
H2830       H  0.41438724  0.61445066  0.64870587     0.28760
H2831       H  0.41089193  0.54576814  0.63786927     0.19350
H2832       H  0.34865456  0.59032855  0.59982971     0.19350
C2833       C  0.54050179  0.38412718  0.62027392    -0.06480
C2834       C  0.55383284  0.40034587  0.63219613    -0.17610
C2835       C  0.57788359  0.40003913  0.63106209     0.10720
C2836       C  0.58928708  0.38077014  0.62136058    -0.06400
C2837       C  0.57555030  0.36276285  0.61250055    -0.17640
C2838       C  0.55150316  0.36460475  0.61105979     0.10750
S2839       S  0.59214611  0.42695113  0.63666268    -0.32600
S2840       S  0.53633497  0.34337637  0.59420879    -0.32610
H2841       H  0.51629666  0.34370138  0.60753398     0.28760
H2842       H  0.57560978  0.43588326  0.65181471     0.28760
H2843       H  0.54533486  0.41571587  0.63847147     0.19350
H2844       H  0.58358550  0.34799579  0.60465691     0.19350
C2845       C  0.45319566  0.38686218  0.60986097    -0.06480
C2846       C  0.44463438  0.38231973  0.63203148    -0.17610
C2847       C  0.42098047  0.37834481  0.63567616     0.10720
C2848       C  0.40525150  0.38008247  0.61687857    -0.06400
C2849       C  0.41428974  0.38323503  0.59469243    -0.17640
C2850       C  0.43786641  0.38524064  0.59087617     0.10750
S2851       S  0.41243839  0.37182317  0.66475723    -0.32600
S2852       S  0.44718257  0.38594640  0.56122581    -0.32610
H2853       H  0.46921177  0.37678691  0.56574401     0.28760
H2854       H  0.39037975  0.36387304  0.65927780     0.28760
H2855       H  0.45625850  0.38279036  0.64672625     0.19350
H2856       H  0.40281552  0.38459603  0.57998416     0.19350
C2857       C  0.62103618  0.45582118  0.39273606    -0.06480
C2858       C  0.63224447  0.44749240  0.37299207    -0.17610
C2859       C  0.63668228  0.42354043  0.37039722     0.10720
C2860       C  0.62621322  0.40731639  0.38574842    -0.06400
C2861       C  0.61420716  0.41658454  0.40459851    -0.17640
C2862       C  0.61507395  0.43966375  0.40994246     0.10750
S2863       S  0.65760466  0.41589471  0.34912214    -0.32600
S2864       S  0.60976557  0.44697089  0.43977619    -0.32610
H2865       H  0.62310573  0.46726082  0.43945392     0.28760
H2866       H  0.66559757  0.39627184  0.36104820     0.28760
H2867       H  0.63834276  0.45960270  0.36011148     0.19350
H2868       H  0.60556691  0.40573897  0.41696270     0.19350
C2869       C  0.62819274  0.54387288  0.38764641    -0.06480
C2870       C  0.62042967  0.55206910  0.36617605    -0.17610
C2871       C  0.61880680  0.57580336  0.36171704     0.10720
C2872       C  0.62466183  0.59171807  0.37920638    -0.06400
C2873       C  0.63597505  0.58336588  0.39908532    -0.17640
C2874       C  0.63775334  0.55965626  0.40347963     0.10750
S2875       S  0.60802893  0.58464562  0.33386400    -0.32600
S2876       S  0.64946242  0.55055783  0.43095194    -0.32610
H2877       H  0.65379829  0.52762568  0.42440832     0.28760
H2878       H  0.61955061  0.60598316  0.33382847     0.28760
H2879       H  0.61338849  0.54004340  0.35372320     0.19350
H2880       H  0.64151948  0.59514995  0.41234433     0.19350
C2881       C  0.61616739  0.38945368  0.54309619    -0.06480
C2882       C  0.61960004  0.36715777  0.55209805    -0.17610
C2883       C  0.62196754  0.36338109  0.57595403     0.10720
C2884       C  0.62029450  0.38235289  0.59119610    -0.06400
C2885       C  0.61932041  0.40472411  0.58185537    -0.17640
C2886       C  0.61811756  0.40850636  0.55811289     0.10750
S2887       S  0.62624431  0.33393867  0.58528979    -0.32600
S2888       S  0.61826477  0.43810121  0.54813525    -0.32610
H2889       H  0.62673601  0.43319319  0.52603051     0.28760
H2890       H  0.62232848  0.33735195  0.60868265     0.28760
H2891       H  0.61887373  0.35243881  0.54066848     0.19350
H2892       H  0.61862472  0.41945998  0.59321840     0.19350
C2893       C  0.61740638  0.37468580  0.45719287    -0.06480
C2894       C  0.63939795  0.38118102  0.44962837    -0.17610
C2895       C  0.64560449  0.37862809  0.42636692     0.10720
C2896       C  0.62906017  0.37073710  0.41009858    -0.06400
C2897       C  0.60843487  0.36132589  0.41878027    -0.17640
C2898       C  0.60297436  0.36232270  0.44209542     0.10750
S2899       S  0.67310420  0.38983347  0.41755738    -0.32600
S2900       S  0.57556339  0.35063498  0.45089777    -0.32610
H2901       H  0.58154328  0.34816430  0.47434918     0.28760
H2902       H  0.67394808  0.37705481  0.39706521     0.28760
H2903       H  0.65090210  0.39025052  0.46125404     0.19350
H2904       H  0.59451346  0.35685297  0.40749063     0.19350
C2905       C  0.38893569  0.62559293  0.54077876    -0.06480
C2906       C  0.40836899  0.62592448  0.55535180    -0.17610
C2907       C  0.40638815  0.61967898  0.57833730     0.10720
C2908       C  0.38486095  0.62206793  0.58926093    -0.06400
C2909       C  0.36546891  0.62741687  0.57533455    -0.17640
C2910       C  0.36699987  0.62719463  0.55105908     0.10750
S2911       S  0.43083157  0.60414354  0.58999338    -0.32600
S2912       S  0.34063342  0.62717803  0.53459729    -0.32610
H2913       H  0.34730799  0.60920142  0.51990544     0.28760
H2914       H  0.42642119  0.60838341  0.61290456     0.28760
H2915       H  0.42540862  0.62535280  0.54781222     0.19350
H2916       H  0.34874675  0.62919890  0.58328348     0.19350
C2917       C  0.38322423  0.61981245  0.45206402    -0.06480
C2918       C  0.37973689  0.59940687  0.43957509    -0.17610
C2919       C  0.37900155  0.59947146  0.41556241     0.10720
C2920       C  0.37752679  0.62071208  0.40348143    -0.06400
C2921       C  0.37675945  0.64129911  0.41634252    -0.17640
C2922       C  0.38083095  0.64115130  0.44035683     0.10750
S2923       S  0.38313546  0.57223044  0.40126647    -0.32600
S2924       S  0.38471136  0.66849896  0.45444788    -0.32610
H2925       H  0.40274392  0.66120157  0.46905834     0.28760
H2926       H  0.37868285  0.55770549  0.42025157     0.28760
H2927       H  0.38095651  0.58302151  0.44861984     0.19350
H2928       H  0.37546366  0.65769772  0.40733672     0.19350
C2929       C  0.20348074  0.61515758  0.36324251    -0.06480
C2930       C  0.19409181  0.61887762  0.38511997    -0.17610
C2931       C  0.17025621  0.62195497  0.38781872     0.10720
C2932       C  0.15557060  0.62034585  0.36822595    -0.06400
C2933       C  0.16538380  0.61864866  0.34632706    -0.17640
C2934       C  0.18909998  0.61747686  0.34357771     0.10750
S2935       S  0.16008438  0.62676403  0.41670624    -0.32600
S2936       S  0.19993534  0.61751020  0.31446047    -0.32610
H2937       H  0.22225554  0.62497687  0.32039348     0.28760
H2938       H  0.13695488  0.62136354  0.41282078     0.28760
H2939       H  0.20508033  0.61773036  0.40027214     0.19350
H2940       H  0.15436157  0.61796896  0.33116870     0.19350
C2941       C  0.29040753  0.61110308  0.37263869    -0.06480
C2942       C  0.29710183  0.63356082  0.36648963    -0.17610
C2943       C  0.32039288  0.63998875  0.36694119     0.10720
C2944       C  0.33745173  0.62344569  0.37266091    -0.06400
C2945       C  0.33027508  0.60196708  0.38133514    -0.17640
C2946       C  0.30705512  0.59592377  0.38207372     0.10750
S2947       S  0.32748851  0.66907825  0.35878839    -0.32600
S2948       S  0.29992642  0.56768771  0.39327993    -0.32610
H2949       H  0.27703337  0.57313362  0.39885246     0.28760
H2950       H  0.34712345  0.67001997  0.37309947     0.28760
H2951       H  0.28440922  0.64561509  0.35978949     0.19350
H2952       H  0.34275739  0.58884555  0.38541908     0.19350
C2953       C  0.12798727  0.45513488  0.36333217    -0.06480
C2954       C  0.14735493  0.44066097  0.36491181    -0.17610
C2955       C  0.14511930  0.41684050  0.36691115     0.10720
C2956       C  0.12294186  0.40705783  0.36922647    -0.06400
C2957       C  0.10401184  0.42185617  0.37221412    -0.17640
C2958       C  0.10609041  0.44572745  0.36821834     0.10750
S2959       S  0.17136713  0.40022809  0.36486953    -0.32600
S2960       S  0.08001997  0.46252094  0.36723248    -0.32610
H2961       H  0.08609103  0.47541122  0.34757065     0.28760
H2962       H  0.16338973  0.38002876  0.37560690     0.28760
H2963       H  0.16440832  0.44782099  0.36232911     0.19350
H2964       H  0.08712401  0.41459412  0.37525314     0.19350
C2965       C  0.12474418  0.54313872  0.36199748    -0.06480
C2966       C  0.11343104  0.55740785  0.34598110    -0.17610
C2967       C  0.11332649  0.58148827  0.34827524     0.10720
C2968       C  0.12309525  0.59179473  0.36824178    -0.06400
C2969       C  0.13196335  0.57694064  0.38553661    -0.17640
C2970       C  0.13340702  0.55300287  0.38242767     0.10750
S2971       S  0.10467843  0.59791078  0.32333501    -0.32600
S2972       S  0.14979296  0.53660947  0.40328690    -0.32610
H2973       H  0.13313969  0.51922127  0.40559374     0.28760
H2974       H  0.09146204  0.58057229  0.31266889     0.28760
H2975       H  0.10730317  0.54977675  0.33005728     0.19350
H2976       H  0.13993830  0.58408273  0.40077262     0.19350
C2977       C  0.13406712  0.38201624  0.20512259    -0.06480
C2978       C  0.12717276  0.36023291  0.19703605    -0.17610
C2979       C  0.12206960  0.35673290  0.17348082     0.10720
C2980       C  0.12564441  0.37479033  0.15729969    -0.06400
C2981       C  0.13026984  0.39693990  0.16587102    -0.17640
C2982       C  0.13321353  0.40092636  0.18945827     0.10750
S2983       S  0.11125214  0.32901684  0.16509709    -0.32600
S2984       S  0.13634720  0.43060451  0.19835056    -0.32610
H2985       H  0.12847179  0.42693940  0.22097232     0.28760
H2986       H  0.09110547  0.33868945  0.15562360     0.28760
H2987       H  0.12658329  0.34571025  0.20888030     0.19350
H2988       H  0.13228016  0.41127435  0.15395843     0.19350
C2989       C  0.13627180  0.37467090  0.29316413    -0.06480
C2990       C  0.11527895  0.38459803  0.29934149    -0.17610
C2991       C  0.10807051  0.38485963  0.32235021     0.10720
C2992       C  0.12227977  0.37524911  0.34005386    -0.06400
C2993       C  0.14204383  0.36302816  0.33339827    -0.17640
C2994       C  0.14916024  0.36269001  0.31028019     0.10750
S2995       S  0.08058626  0.39813849  0.32771245    -0.32600
S2996       S  0.17562241  0.34786981  0.30386150    -0.32610
H2997       H  0.17049963  0.34401949  0.28044776     0.28760
H2998       H  0.07621183  0.38620221  0.34833041     0.28760
H2999       H  0.10506004  0.39351873  0.28634868     0.19350
H3000       H  0.15277954  0.35481105  0.34638702     0.19350
C3001       C  0.36568355  0.45926072  0.13968819    -0.06480
C3002       C  0.36735230  0.44418306  0.15870804    -0.17610
C3003       C  0.36640328  0.42036176  0.15608030     0.10720
C3004       C  0.36734570  0.41081221  0.13370590    -0.06400
C3005       C  0.36971283  0.42585199  0.11470585    -0.17640
C3006       C  0.36758990  0.44987859  0.11730115     0.10750
S3007       S  0.36184126  0.40394663  0.18222078    -0.32600
S3008       S  0.36471306  0.46696260  0.09140151    -0.32610
H3009       H  0.34585441  0.47983488  0.09932012     0.28760
H3010       H  0.36977713  0.38275502  0.17424056     0.28760
H3011       H  0.36674610  0.45107997  0.17604135     0.19350
H3012       H  0.37076828  0.41875495  0.09750457     0.19350
C3013       C  0.36615033  0.54704669  0.13035929    -0.06480
C3014       C  0.38775784  0.55555848  0.13676607    -0.17610
C3015       C  0.39307073  0.57900121  0.13417458     0.10720
C3016       C  0.37626811  0.59451089  0.12512742    -0.06400
C3017       C  0.35586575  0.58526609  0.11588681    -0.17640
C3018       C  0.35062809  0.56177461  0.11846134     0.10750
S3019       S  0.42144948  0.58775205  0.14348853    -0.32600
S3020       S  0.32302655  0.55192251  0.10798718    -0.32610
H3021       H  0.32929791  0.52856501  0.10598879     0.28760
H3022       H  0.42099557  0.61001608  0.13393666     0.28760
H3023       H  0.39992906  0.54424293  0.14548175     0.19350
H3024       H  0.34328948  0.59655954  0.10787261     0.19350
C3025       C  0.28820986  0.38836595  0.12643842    -0.06480
C3026       C  0.29867212  0.37461570  0.14349282    -0.17610
C3027       C  0.32258888  0.37059999  0.14375336     0.10720
C3028       C  0.33661343  0.38086777  0.12648931    -0.06400
C3029       C  0.32538782  0.39222831  0.10798241    -0.17640
C3030       C  0.30159900  0.39622301  0.10785714     0.10750
S3031       S  0.33424645  0.35350418  0.16709954    -0.32600
S3032       S  0.28980994  0.41374962  0.08485551    -0.32610
H3033       H  0.26740852  0.40467594  0.08590642     0.28760
H3034       H  0.31324029  0.34560477  0.17613198     0.28760
H3035       H  0.28823014  0.36855839  0.15769581     0.19350
H3036       H  0.33545724  0.39965971  0.09418667     0.19350
C3037       C  0.20081260  0.38882935  0.12438039    -0.06480
C3038       C  0.19493734  0.36663032  0.13203232    -0.17610
C3039       C  0.17193281  0.35924797  0.13221134     0.10720
C3040       C  0.15415248  0.37445159  0.12487225    -0.06400
C3041       C  0.16044327  0.39600668  0.11558748    -0.17640
C3042       C  0.18344328  0.40306787  0.11475012     0.10750
S3043       S  0.16650245  0.33072837  0.14333629    -0.32600
S3044       S  0.18940146  0.43122995  0.10271663    -0.32610
H3045       H  0.21236632  0.42648001  0.09682447     0.28760
H3046       H  0.14581742  0.32756342  0.13112896     0.28760
H3047       H  0.20814852  0.35553457  0.13937761     0.19350
H3048       H  0.14730248  0.40828422  0.11058741     0.19350
C3049       C  0.35573298  0.62268797  0.20144641    -0.06480
C3050       C  0.33991116  0.62662609  0.18337258    -0.17610
C3051       C  0.34643623  0.62610091  0.16037106     0.10720
C3052       C  0.37009632  0.62474291  0.15471870    -0.06400
C3053       C  0.38634059  0.62412971  0.17283484    -0.17640
C3054       C  0.37945944  0.62177235  0.19595858     0.10750
S3055       S  0.32313464  0.62696966  0.13947737    -0.32600
S3056       S  0.40163490  0.61504955  0.21679527    -0.32610
H3057       H  0.38887449  0.59764298  0.22790527     0.28760
H3058       H  0.33551688  0.63563281  0.12071039     0.28760
H3059       H  0.32174044  0.62842081  0.18712184     0.19350
H3060       H  0.40448025  0.62369333  0.16896402     0.19350
C3061       C  0.35411661  0.61949069  0.28980839    -0.06480
C3062       C  0.36343008  0.64003345  0.29876134    -0.17610
C3063       C  0.36865331  0.64206988  0.32254574     0.10720
C3064       C  0.36269566  0.62375282  0.33781356    -0.06400
C3065       C  0.35388581  0.60333844  0.32831220    -0.17640
C3066       C  0.35205072  0.60024171  0.30473269     0.10750
S3067       S  0.38139671  0.66887606  0.33188941    -0.32600
S3068       S  0.34671125  0.57114582  0.29487081    -0.32610
H3069       H  0.35663997  0.57447051  0.27302943     0.28760
H3070       H  0.38363772  0.66365060  0.35537672     0.28760
H3071       H  0.36581012  0.65477204  0.28743739     0.19350
H3072       H  0.34875470  0.58917874  0.33940562     0.19350
C3073       C  0.11689002  0.45451522  0.88373658    -0.06480
C3074       C  0.13981628  0.44759967  0.88053202    -0.17610
C3075       C  0.14545175  0.42421104  0.87741610     0.10720
C3076       C  0.12794461  0.40724090  0.87946791    -0.06400
C3077       C  0.10496028  0.41459411  0.88055063    -0.17640
C3078       C  0.09924458  0.43787970  0.88115453     0.10750
S3079       S  0.17507847  0.41775162  0.87120416    -0.32600
S3080       S  0.06905926  0.44515562  0.87885048    -0.32610
H3081       H  0.07265665  0.46752214  0.86995708     0.28760
H3082       H  0.17127174  0.39536804  0.86333267     0.28760
H3083       H  0.15349067  0.46030171  0.88132456     0.19350
H3084       H  0.09122107  0.40192598  0.88098314     0.19350
C3085       C  0.12298036  0.54209285  0.88393725    -0.06480
C3086       C  0.13680257  0.55363910  0.89999090    -0.17610
C3087       C  0.13633564  0.57776680  0.90176759     0.10720
C3088       C  0.12262304  0.59088087  0.88600488    -0.06400
C3089       C  0.11227586  0.57911751  0.86739256    -0.17640
C3090       C  0.11184317  0.55498656  0.86650296     0.10750
S3091       S  0.15018467  0.58989892  0.92673578    -0.32600
S3092       S  0.09385682  0.54170116  0.84488737    -0.32610
H3093       H  0.10565543  0.52054067  0.84478382     0.28760
H3094       H  0.16520924  0.57136052  0.93138060     0.28760
H3095       H  0.14510987  0.54353606  0.91347060     0.19350
H3096       H  0.10234096  0.58870779  0.85467630     0.19350
C3097       C  0.10962425  0.37549366  0.95457713    -0.06480
C3098       C  0.13204503  0.38289912  0.94983270    -0.17610
C3099       C  0.14062856  0.38283160  0.92729663     0.10720
C3100       C  0.12650203  0.37550084  0.90862634    -0.06400
C3101       C  0.10474629  0.36622089  0.91373167    -0.17640
C3102       C  0.09638673  0.36578657  0.93640792     0.10750
S3103       S  0.16966591  0.39289603  0.92363901    -0.32600
S3104       S  0.06811723  0.35376852  0.94091123    -0.32610
H3105       H  0.07153850  0.34842638  0.96439170     0.28760
H3106       H  0.17399088  0.37968373  0.90391545     0.28760
H3107       H  0.14248478  0.39018726  0.96354876     0.19350
H3108       H  0.09363410  0.36048414  0.89980758     0.19350
C3109       C  0.10893655  0.38385601  0.04251456    -0.06480
C3110       C  0.11512291  0.36176691  0.05065234    -0.17610
C3111       C  0.11954729  0.35770401  0.07429415     0.10720
C3112       C  0.11593023  0.37551243  0.09050745    -0.06400
C3113       C  0.11187775  0.39789654  0.08198680    -0.17640
C3114       C  0.10975938  0.40242422  0.05835913     0.10750
S3115       S  0.12961263  0.32961920  0.08271838    -0.32600
S3116       S  0.10809791  0.43237169  0.04964022    -0.32610
H3117       H  0.11686957  0.42885903  0.02737898     0.28760
H3118       H  0.15020584  0.33861607  0.09178588     0.28760
H3119       H  0.11577474  0.34745508  0.03873843     0.19350
H3120       H  0.10991954  0.41204795  0.09394785     0.19350
C3121       C  0.87320165  0.45623229  0.10446392    -0.06480
C3122       C  0.87401394  0.44976557  0.12783088    -0.17610
C3123       C  0.87425419  0.42630279  0.13442257     0.10720
C3124       C  0.87557036  0.40890480  0.11735696    -0.06400
C3125       C  0.87450672  0.41587452  0.09413709    -0.17640
C3126       C  0.87109996  0.43876318  0.08773878     0.10750
S3127       S  0.87355452  0.41995366  0.16468003    -0.32600
S3128       S  0.86513576  0.44468683  0.05764360    -0.32610
H3129       H  0.85429995  0.46605463  0.06139944     0.28760
H3130       H  0.85864743  0.40120283  0.16171513     0.28760
H3131       H  0.87532221  0.46296286  0.14093915     0.19350
H3132       H  0.87603963  0.40341596  0.08053189     0.19350
C3133       C  0.86643925  0.54378763  0.10520640    -0.06480
C3134       C  0.87179014  0.55109243  0.12760511    -0.17610
C3135       C  0.86623894  0.57349986  0.13499725     0.10720
C3136       C  0.85829785  0.59020734  0.11863270    -0.06400
C3137       C  0.84825914  0.58101877  0.09831912    -0.17640
C3138       C  0.85288730  0.55841843  0.09111613     0.10750
S3139       S  0.86058522  0.57547798  0.16531358    -0.32600
S3140       S  0.84265237  0.54996940  0.06297337    -0.32610
H3141       H  0.84172681  0.52615359  0.06774583     0.28760
H3142       H  0.84155255  0.59023159  0.16217800     0.28760
H3143       H  0.87953478  0.53896905  0.13968309     0.19350
H3144       H  0.83972992  0.59253826  0.08618490     0.19350
C3145       C  0.04095248  0.39063936  0.12239451    -0.06480
C3146       C  0.04650539  0.36835439  0.11498562    -0.17610
C3147       C  0.06933049  0.36046435  0.11525208     0.10720
C3148       C  0.08731171  0.37519887  0.12284713    -0.06400
C3149       C  0.08132647  0.39675578  0.13208091    -0.17640
C3150       C  0.05845565  0.40435916  0.13240244     0.10750
S3151       S  0.07432543  0.33196498  0.10420630    -0.32600
S3152       S  0.05288702  0.43247967  0.14434616    -0.32610
H3153       H  0.02961956  0.42825091  0.14946677     0.28760
H3154       H  0.09488243  0.32827264  0.11652008     0.28760
H3155       H  0.03322641  0.35760737  0.10737392     0.19350
H3156       H  0.09465894  0.40864187  0.13739058     0.19350
C3157       C  0.95400980  0.38797901  0.11360583    -0.06480
C3158       C  0.94521178  0.38547971  0.13593081    -0.17610
C3159       C  0.92179480  0.38049165  0.13957776     0.10720
C3160       C  0.90647908  0.37848787  0.12047144    -0.06400
C3161       C  0.91616424  0.37801575  0.09831141    -0.17640
C3162       C  0.93956746  0.38239174  0.09470613     0.10750
S3163       S  0.91293478  0.37751845  0.16911519    -0.32600
S3164       S  0.94966673  0.38175167  0.06534041    -0.32610
H3165       H  0.97264507  0.37634671  0.07101111     0.28760
H3166       H  0.89050763  0.37028353  0.16440935     0.28760
H3167       H  0.95632253  0.38878976  0.15064497     0.19350
H3168       H  0.90533561  0.37584157  0.08333819     0.19350
C3169       C  0.87582841  0.62522944  0.95862922    -0.06480
C3170       C  0.88034825  0.64728649  0.94965220    -0.17610
C3171       C  0.87778982  0.65197752  0.92599910     0.10720
C3172       C  0.87033417  0.63423080  0.91093985    -0.06400
C3173       C  0.86225505  0.61346119  0.92079968    -0.17640
C3174       C  0.86488482  0.60884742  0.94440037     0.10750
S3175       S  0.88860097  0.67933275  0.91571663    -0.32600
S3176       S  0.85717915  0.58048007  0.95476811    -0.32610
H3177       H  0.85580268  0.58665347  0.97814508     0.28760
H3178       H  0.87938535  0.67796115  0.89337772     0.28760
H3179       H  0.88870758  0.65999232  0.96051952     0.19350
H3180       H  0.85706654  0.59935794  0.90985532     0.19350
C3181       C  0.89134223  0.61976239  0.04526204    -0.06480
C3182       C  0.87457188  0.63568128  0.05275980    -0.17610
C3183       C  0.86598432  0.63506234  0.07550474     0.10720
C3184       C  0.87621435  0.62007951  0.09207346    -0.06400
C3185       C  0.89353833  0.60516734  0.08472885    -0.17640
C3186       C  0.89986742  0.60361872  0.06185369     0.10750
S3187       S  0.84066106  0.65189699  0.08121674    -0.32600
S3188       S  0.91569397  0.57781075  0.05542583    -0.32610
H3189       H  0.90120820  0.57196532  0.03676575     0.28760
H3190       H  0.83194860  0.63717062  0.09841621     0.28760
H3191       H  0.86713434  0.64789692  0.04064287     0.19350
H3192       H  0.90049661  0.59246398  0.09661433     0.19350
C3193       C  0.04004413  0.61048385  0.88514098    -0.06480
C3194       C  0.05159387  0.60412576  0.90560497    -0.17610
C3195       C  0.07535136  0.60622689  0.90803906     0.10720
C3196       C  0.08832307  0.61731435  0.89061871    -0.06400
C3197       C  0.07646906  0.62627560  0.87120473    -0.17640
C3198       C  0.05263830  0.62238494  0.86796675     0.10750
S3199       S  0.08787753  0.59264663  0.93324496    -0.32600
S3200       S  0.03992796  0.63131427  0.84092576    -0.32610
H3201       H  0.02470765  0.61254968  0.83895903     0.28760
H3202       H  0.10659096  0.60766064  0.93503626     0.28760
H3203       H  0.04217044  0.59559085  0.91930466     0.19350
H3204       H  0.08619680  0.63438601  0.85749368     0.19350
C3205       C  0.95305455  0.61955349  0.88321050    -0.06480
C3206       C  0.94244329  0.63068226  0.86434766    -0.17610
C3207       C  0.91930799  0.63830225  0.86559000     0.10720
C3208       C  0.90536702  0.63132176  0.88462316    -0.06400
C3209       C  0.91722032  0.62169953  0.90381851    -0.17640
C3210       C  0.94075907  0.61785994  0.90393378     0.10750
S3211       S  0.91038265  0.65896525  0.84400717    -0.32600
S3212       S  0.95397757  0.60932627  0.93099374    -0.32610
H3213       H  0.97635685  0.61647656  0.92519490     0.28760
H3214       H  0.89195075  0.66792493  0.85663648     0.28760
H3215       H  0.95220031  0.63361250  0.84875233     0.19350
H3216       H  0.90840791  0.61676371  0.91936431     0.19350
C3217       C  0.12459285  0.70794673  0.36146326    -0.06480
C3218       C  0.11337195  0.69945505  0.38097270    -0.17610
C3219       C  0.11283932  0.67579585  0.38582872     0.10720
C3220       C  0.12350989  0.66000933  0.37056908    -0.06400
C3221       C  0.13760128  0.66920579  0.35306869    -0.17640
C3222       C  0.13801712  0.69287822  0.34822146     0.10750
S3223       S  0.09688660  0.66724043  0.41099113    -0.32600
S3224       S  0.15378649  0.70251128  0.32327356    -0.32610
H3225       H  0.15653318  0.72547467  0.33054029     0.28760
H3226       H  0.10794489  0.64601439  0.41401882     0.28760
H3227       H  0.10339927  0.71114904  0.39147775     0.19350
H3228       H  0.14615465  0.65803029  0.34111984     0.19350
C3229       C  0.12391999  0.79422891  0.36615666    -0.06480
C3230       C  0.14229794  0.80641992  0.35646841    -0.17610
C3231       C  0.14484027  0.83010976  0.36035903     0.10720
C3232       C  0.12793262  0.84207472  0.37306088    -0.06400
C3233       C  0.11279457  0.82890002  0.38670383    -0.17640
C3234       C  0.11035124  0.80508197  0.38305876     0.10750
S3235       S  0.16815135  0.84487273  0.34617416    -0.32600
S3236       S  0.08710587  0.79044049  0.39751281    -0.32610
H3237       H  0.09664753  0.76820443  0.39622933     0.28760
H3238       H  0.16694609  0.86488743  0.35976398     0.28760
H3239       H  0.15351692  0.79793358  0.34431115     0.19350
H3240       H  0.10021104  0.83732989  0.39732591     0.19350
C3241       C  0.87593696  0.62479164  0.15830542    -0.06480
C3242       C  0.85919687  0.63336858  0.17355348    -0.17610
C3243       C  0.86359574  0.63532964  0.19729269     0.10720
C3244       C  0.88498732  0.62808952  0.20638692    -0.06400
C3245       C  0.90068182  0.61735765  0.19165933    -0.17640
C3246       C  0.89679608  0.61607801  0.16792102     0.10750
S3247       S  0.84266462  0.64992717  0.21456980    -0.32600
S3248       S  0.91994230  0.60393526  0.15147175    -0.32610
H3249       H  0.90604692  0.59531068  0.13397012     0.28760
H3250       H  0.83722387  0.62974161  0.22698536     0.28760
H3251       H  0.84300065  0.63979663  0.16682252     0.19350
H3252       H  0.91713358  0.61159290  0.19855067     0.19350
C3253       C  0.04200892  0.64080889  0.36468242    -0.06480
C3254       C  0.05538243  0.64499211  0.34502421    -0.17610
C3255       C  0.07915029  0.64276641  0.34548768     0.10720
C3256       C  0.09007889  0.63253246  0.36497527    -0.06400
C3257       C  0.07619637  0.62405325  0.38294008    -0.17640
C3258       C  0.05252958  0.62936014  0.38369368     0.10750
S3259       S  0.09386483  0.65544353  0.32109109    -0.32600
S3260       S  0.03779902  0.62357834  0.41031594    -0.32610
H3261       H  0.02574100  0.64463487  0.41043909     0.28760
H3262       H  0.11445354  0.64313005  0.32325831     0.28760
H3263       H  0.04747391  0.65230729  0.32963478     0.19350
H3264       H  0.08429415  0.61601567  0.39784524     0.19350
C3265       C  0.11008630  0.86820758  0.29107485    -0.06480
C3266       C  0.10372679  0.84930003  0.30485927    -0.17610
C3267       C  0.10329195  0.85103839  0.32853700     0.10720
C3268       C  0.11670417  0.86810670  0.33965210    -0.06400
C3269       C  0.12705821  0.88530154  0.32570408    -0.17640
C3270       C  0.12231380  0.88650252  0.30171173     0.10750
S3271       S  0.08164982  0.83343396  0.34231778    -0.32600
S3272       S  0.13160945  0.91175078  0.28612515    -0.32610
H3273       H  0.11277318  0.91241237  0.27077390     0.28760
H3274       H  0.07871484  0.84667626  0.36211442     0.28760
H3275       H  0.09508252  0.83459590  0.29716626     0.19350
H3276       H  0.13774827  0.89842689  0.33357145     0.19350
C3277       C  0.11212039  0.86634270  0.20259249    -0.06480
C3278       C  0.11397557  0.84642047  0.18897277    -0.17610
C3279       C  0.11684948  0.84785443  0.16504859     0.10720
C3280       C  0.11819221  0.86967908  0.15411773    -0.06400
C3281       C  0.11976863  0.88936235  0.16814511    -0.17640
C3282       C  0.11627370  0.88802333  0.19209689     0.10750
S3283       S  0.11742018  0.82125457  0.14934350    -0.32600
S3284       S  0.11497325  0.91475990  0.20775398    -0.32610
H3285       H  0.09550417  0.90884863  0.22078414     0.28760
H3286       H  0.13818537  0.82683895  0.13845337     0.28760
H3287       H  0.11147603  0.82958580  0.19684336     0.19350
H3288       H  0.12174209  0.90618129  0.16017173     0.19350
C3289       C  0.87849140  0.70448295  0.13654031    -0.06480
C3290       C  0.89797093  0.69168021  0.13019908    -0.17610
C3291       C  0.89693064  0.66780454  0.12653062     0.10720
C3292       C  0.87557208  0.65608107  0.12845543    -0.06400
C3293       C  0.85568317  0.66953428  0.13209181    -0.17640
C3294       C  0.85692550  0.69328628  0.13667979     0.10750
S3295       S  0.92401377  0.65390687  0.12096536    -0.32600
S3296       S  0.83074804  0.70759967  0.14497998    -0.32610
H3297       H  0.84074668  0.72039739  0.16299248     0.28760
H3298       H  0.91497181  0.63343748  0.11241636     0.28760
H3299       H  0.91459666  0.70018350  0.12964218     0.19350
H3300       H  0.83912196  0.66106360  0.13345456     0.19350
C3301       C  0.86801832  0.84008834  0.13012178    -0.06480
C3302       C  0.85592783  0.83092619  0.14898802    -0.17610
C3303       C  0.85568507  0.80713250  0.15352323     0.10720
C3304       C  0.86763092  0.79194787  0.13887021    -0.06400
C3305       C  0.87660006  0.80063435  0.11821279    -0.17640
C3306       C  0.87676573  0.82450601  0.11358740     0.10750
S3307       S  0.84230448  0.79738637  0.17980456    -0.32600
S3308       S  0.88925374  0.83480190  0.08704863    -0.32610
H3309       H  0.89317054  0.81305061  0.07716270     0.28760
H3310       H  0.83934607  0.77434943  0.17281224     0.28760
H3311       H  0.84902907  0.84234848  0.16185440     0.19350
H3312       H  0.88547069  0.78894924  0.10679713     0.19350
C3313       C  0.03894596  0.86303142  0.12285518    -0.06480
C3314       C  0.04731024  0.88476172  0.12952216    -0.17610
C3315       C  0.07109947  0.88966182  0.12912562     0.10720
C3316       C  0.08698477  0.87201990  0.12343648    -0.06400
C3317       C  0.07819305  0.85078487  0.11598798    -0.17640
C3318       C  0.05465241  0.84683900  0.11387589     0.10750
S3319       S  0.08002163  0.91830488  0.13692429    -0.32600
S3320       S  0.04566225  0.81957400  0.10181969    -0.32610
H3321       H  0.02322463  0.82683297  0.09599748     0.28760
H3322       H  0.10027980  0.91783638  0.12387786     0.28760
H3323       H  0.03550001  0.89744279  0.13633037     0.19350
H3324       H  0.08978821  0.83680350  0.11200476     0.19350
C3325       C  0.95063566  0.86311146  0.13424116    -0.06480
C3326       C  0.93760592  0.86030406  0.15441617    -0.17610
C3327       C  0.91358904  0.86014117  0.15386542     0.10720
C3328       C  0.90178015  0.86799412  0.13383399    -0.06400
C3329       C  0.91505662  0.87534323  0.11485707    -0.17640
C3330       C  0.93911423  0.87154916  0.11428235     0.10750
S3331       S  0.89898942  0.84743334  0.17829987    -0.32600
S3332       S  0.95339138  0.87565039  0.08713619    -0.32610
H3333       H  0.96683235  0.85552003  0.08895165     0.28760
H3334       H  0.91844521  0.83863333  0.18997270     0.28760
H3335       H  0.94632152  0.85533769  0.17026060     0.19350
H3336       H  0.90633852  0.88143880  0.09939497     0.19350
C3337       C  0.37772846  0.70970282  0.11518204    -0.06480
C3338       C  0.39739755  0.69900961  0.10637686    -0.17610
C3339       C  0.40143023  0.67537973  0.11022401     0.10720
C3340       C  0.38491647  0.66181738  0.12207197    -0.06400
C3341       C  0.36736917  0.67370250  0.13382749    -0.17640
C3342       C  0.36380157  0.69735024  0.13069764     0.10750
S3343       S  0.42597245  0.66260973  0.09654276    -0.32600
S3344       S  0.33883020  0.71001998  0.14398361    -0.32610
H3345       H  0.34702676  0.73286394  0.14339565     0.28760
H3346       H  0.42829555  0.64497898  0.11314201     0.28760
H3347       H  0.40844401  0.70849531  0.09469217     0.19350
H3348       H  0.35422912  0.66470560  0.14300213     0.19350
C3349       C  0.37067001  0.79589320  0.10212261    -0.06480
C3350       C  0.36953509  0.80402352  0.12482414    -0.17610
C3351       C  0.36885144  0.82780135  0.12941590     0.10720
C3352       C  0.36815167  0.84386686  0.11087732    -0.06400
C3353       C  0.37057626  0.83542847  0.08839022    -0.17640
C3354       C  0.37299448  0.81198726  0.08394755     0.10750
S3355       S  0.36793343  0.83613237  0.15918676    -0.32600
S3356       S  0.37784674  0.80363022  0.05441754    -0.32610
H3357       H  0.38846629  0.78242897  0.05984646     0.28760
H3358       H  0.37842722  0.85763696  0.15580795     0.28760
H3359       H  0.36801500  0.79181467  0.13897223     0.19350
H3360       H  0.36949405  0.84685153  0.07381518     0.19350
C3361       C  0.12027495  0.79375251  0.88418157    -0.06480
C3362       C  0.10310577  0.80742770  0.89396629    -0.17610
C3363       C  0.10179869  0.83108992  0.88886189     0.10720
C3364       C  0.11854759  0.84130973  0.87448498    -0.06400
C3365       C  0.13208440  0.82669049  0.86086292    -0.17640
C3366       C  0.13355348  0.80302055  0.86598673     0.10750
S3367       S  0.08058451  0.84878425  0.90292247    -0.32600
S3368       S  0.15576146  0.78678095  0.85182736    -0.32610
H3369       H  0.14501634  0.76527672  0.85425005     0.28760
H3370       H  0.06840376  0.83054401  0.91333535     0.28760
H3371       H  0.09228981  0.80008944  0.90726207     0.19350
H3372       H  0.14438214  0.83388316  0.84897652     0.19350
C3373       C  0.12109999  0.70732919  0.89432113    -0.06480
C3374       C  0.10898473  0.69387416  0.91027493    -0.17610
C3375       C  0.10816821  0.66970940  0.90855677     0.10720
C3376       C  0.12000498  0.65865219  0.89031051    -0.06400
C3377       C  0.12930575  0.67265046  0.87273348    -0.17640
C3378       C  0.13030235  0.69665437  0.87470940     0.10750
S3379       S  0.09392054  0.65405530  0.93125943    -0.32600
S3380       S  0.14643302  0.71238698  0.85344718    -0.32610
H3381       H  0.12807890  0.72740885  0.84835452     0.28760
H3382       H  0.08223542  0.67289272  0.94092794     0.28760
H3383       H  0.10181540  0.70227648  0.92523251     0.19350
H3384       H  0.13776602  0.66471107  0.85821787     0.19350
C3385       C  0.14501667  0.87002677  0.95327987    -0.06480
C3386       C  0.15197782  0.85150674  0.93940300    -0.17610
C3387       C  0.14933375  0.85194008  0.91566970     0.10720
C3388       C  0.13402564  0.86794298  0.90533645    -0.06400
C3389       C  0.12482404  0.88548535  0.91929568    -0.17640
C3390       C  0.13158493  0.88771204  0.94262262     0.10750
S3391       S  0.16826275  0.83374546  0.89914246    -0.32600
S3392       S  0.12370442  0.91407369  0.95680558    -0.32610
H3393       H  0.14433993  0.91573980  0.96955603     0.28760
H3394       H  0.18246506  0.82607062  0.91740853     0.28760
H3395       H  0.16070532  0.83674333  0.94686056     0.19350
H3396       H  0.11315223  0.89808006  0.91181620     0.19350
C3397       C  0.13308276  0.87942907  0.03982860    -0.06480
C3398       C  0.14303491  0.89665429  0.05352982    -0.17610
C3399       C  0.13817490  0.89807532  0.07711247     0.10720
C3400       C  0.12356044  0.88147819  0.08751410    -0.06400
C3401       C  0.11037807  0.86737456  0.07268790    -0.17640
C3402       C  0.11521505  0.86592128  0.04911370     0.10750
S3403       S  0.15355561  0.91954975  0.09354035    -0.32600
S3404       S  0.10129691  0.84324083  0.03301865    -0.32610
H3405       H  0.10129572  0.85504260  0.01181989     0.28760
H3406       H  0.13972686  0.91814753  0.11326427     0.28760
H3407       H  0.15642342  0.90753061  0.04637522     0.19350
H3408       H  0.09905419  0.85447606  0.07936997     0.19350
C3409       C  0.15409078  0.63180997  0.89051189    -0.06480
C3410       C  0.16515963  0.62767137  0.86933675    -0.17610
C3411       C  0.18880101  0.63258602  0.86647846     0.10720
C3412       C  0.20198118  0.64027000  0.88550177    -0.06400
C3413       C  0.19141464  0.64081483  0.90722470    -0.17640
C3414       C  0.16772164  0.63881580  0.90955430     0.10750
S3415       S  0.20056177  0.63137113  0.83799101    -0.32600
S3416       S  0.15624127  0.64812815  0.93681548    -0.32610
H3417       H  0.13656471  0.63436906  0.93609746     0.28760
H3418       H  0.21631398  0.61391611  0.84411300     0.28760
H3419       H  0.15490556  0.62286901  0.85443025     0.19350
H3420       H  0.20135821  0.64612892  0.92219676     0.19350
C3421       C  0.35860186  0.63446402  0.04232586    -0.06480
C3422       C  0.37152175  0.61582724  0.05111645    -0.17610
C3423       C  0.38109079  0.61650568  0.07364938     0.10720
C3424       C  0.37468969  0.63459076  0.08901916    -0.06400
C3425       C  0.36190843  0.65302454  0.07934569    -0.17640
C3426       C  0.35644961  0.65419744  0.05611580     0.10750
S3427       S  0.40335066  0.59576253  0.07975520    -0.32600
S3428       S  0.34873417  0.68218466  0.04463377    -0.32610
H3429       H  0.35812033  0.67851851  0.02265292     0.28760
H3430       H  0.41573107  0.61051799  0.09431385     0.28760
H3431       H  0.37498419  0.60120005  0.04012017     0.19350
H3432       H  0.35690484  0.66767243  0.08954596     0.19350
C3433       C  0.15301063  0.86589726  0.11604001    -0.06480
C3434       C  0.16786325  0.87668710  0.13210790    -0.17610
C3435       C  0.19148878  0.87079783  0.13359293     0.10720
C3436       C  0.20102433  0.85554154  0.11718141    -0.06400
C3437       C  0.18621616  0.84649677  0.10021210    -0.17640
C3438       C  0.16261830  0.84937855  0.10106074     0.10750
S3439       S  0.20812321  0.88295345  0.15684898    -0.32600
S3440       S  0.14612179  0.82931130  0.08395041    -0.32610
H3441       H  0.12706657  0.82889356  0.09860496     0.28760
H3442       H  0.22227301  0.86349636  0.16013334     0.28760
H3443       H  0.16113435  0.88965031  0.14357994     0.19350
H3444       H  0.19286168  0.83541085  0.08682298     0.19350
C3445       C  0.28863815  0.86483692  0.11161666    -0.06480
C3446       C  0.29935303  0.87120859  0.13239920    -0.17610
C3447       C  0.32310788  0.87621922  0.13343374     0.10720
C3448       C  0.33676643  0.87393306  0.11333737    -0.06400
C3449       C  0.32529825  0.86987655  0.09229623    -0.17640
C3450       C  0.30154473  0.86621126  0.09110201     0.10750
S3451       S  0.33456230  0.88413003  0.16121382    -0.32600
S3452       S  0.28900280  0.86121600  0.06298439    -0.32610
H3453       H  0.26636509  0.86698579  0.06920460     0.28760
H3454       H  0.35581073  0.89202941  0.15338736     0.28760
H3455       H  0.28954232  0.87066460  0.14821748     0.19350
H3456       H  0.33512891  0.86825596  0.07661172     0.19350
C3457       C  0.62068129  0.34366882  0.87346294    -0.06480
C3458       C  0.60633529  0.32646073  0.88299537    -0.17610
C3459       C  0.61223498  0.30302943  0.88274085     0.10720
C3460       C  0.63293920  0.29599349  0.87245196    -0.06400
C3461       C  0.64618067  0.31275593  0.86083690    -0.17640
C3462       C  0.64067773  0.33641457  0.86159243     0.10750
S3463       S  0.59455898  0.28342199  0.89899144    -0.32600
S3464       S  0.66130560  0.35598026  0.84894415    -0.32610
H3465       H  0.65802237  0.37450458  0.86393255     0.28760
H3466       H  0.58825689  0.27074510  0.87933379     0.28760
H3467       H  0.59114759  0.33143998  0.89241643     0.19350
H3468       H  0.66229243  0.30759672  0.85308521     0.19350
C3469       C  0.62017751  0.36953572  0.90744593    -0.06480
C3470       C  0.64274700  0.36723793  0.91590555    -0.17610
C3471       C  0.64741335  0.36596386  0.93941003     0.10720
C3472       C  0.62903311  0.36343946  0.95506881    -0.06400
C3473       C  0.60644058  0.36696515  0.94701840    -0.17640
C3474       C  0.60182160  0.37046864  0.92340983     0.10750
S3475       S  0.67728085  0.36716508  0.94828165    -0.32600
S3476       S  0.57212139  0.37461369  0.91513639    -0.32610
H3477       H  0.57398610  0.36778720  0.89217341     0.28760
H3478       H  0.67286707  0.37516667  0.97068537     0.28760
H3479       H  0.65702437  0.36650289  0.90403619     0.19350
H3480       H  0.59220839  0.36554392  0.95891725     0.19350
C3481       C  0.90716263  0.37923062  0.62273413    -0.06480
C3482       C  0.91379021  0.38933044  0.64375035    -0.17610
C3483       C  0.93677532  0.38999557  0.65093238     0.10720
C3484       C  0.95380477  0.37913877  0.63754989    -0.06400
C3485       C  0.94784023  0.37154404  0.61538099    -0.17640
C3486       C  0.92485478  0.37211894  0.60766699     0.10750
S3487       S  0.94305976  0.40329979  0.67834524    -0.32600
S3488       S  0.91915350  0.36326445  0.57857135    -0.32610
H3489       H  0.89949064  0.37728278  0.57600301     0.28760
H3490       H  0.96637687  0.40780445  0.67368003     0.28760
H3491       H  0.90110993  0.39546588  0.65557887     0.19350
H3492       H  0.96084137  0.36383863  0.60455682     0.19350
C3493       C  0.87953773  0.34573194  0.62306506    -0.06480
C3494       C  0.88323608  0.33727376  0.64547820    -0.17610
C3495       C  0.88438144  0.31372827  0.65006286     0.10720
C3496       C  0.88543969  0.29800128  0.63150629    -0.06400
C3497       C  0.88009365  0.30606492  0.60919658    -0.17640
C3498       C  0.87604999  0.32969036  0.60504339     0.10750
S3499       S  0.88474426  0.30493174  0.68002505    -0.32600
S3500       S  0.86686897  0.33822558  0.57662124    -0.32610
H3501       H  0.84759609  0.35010484  0.58479091     0.28760
H3502       H  0.87563251  0.28277430  0.67606951     0.28760
H3503       H  0.88521203  0.34916509  0.65967654     0.19350
H3504       H  0.87975025  0.29412546  0.59489211     0.19350
C3505       C  0.83950889  0.37806906  0.62138520    -0.06480
C3506       C  0.83151960  0.36484066  0.64013393    -0.17610
C3507       C  0.80821460  0.36444779  0.64598780     0.10720
C3508       C  0.79227648  0.37753528  0.63292438    -0.06400
C3509       C  0.79954428  0.38802023  0.61242095    -0.17640
C3510       C  0.82285885  0.38807922  0.60632147     0.10750
S3511       S  0.80014203  0.34877414  0.67167245    -0.32600
S3512       S  0.83018171  0.40190289  0.57944272    -0.32610
H3513       H  0.85122624  0.39033516  0.57664002     0.28760
H3514       H  0.77691011  0.34572656  0.66535103     0.28760
H3515       H  0.84343940  0.35644286  0.65174740     0.19350
H3516       H  0.78727322  0.39760188  0.60193326     0.19350
C3517       C  0.65679638  0.37621247  0.62833875    -0.06480
C3518       C  0.66917482  0.39258941  0.61528653    -0.17610
C3519       C  0.69306770  0.39539002  0.61818753     0.10720
C3520       C  0.70522221  0.38084563  0.63367123    -0.06400
C3521       C  0.69354084  0.36253116  0.64411458    -0.17640
C3522       C  0.66971598  0.35989945  0.64153181     0.10750
S3523       S  0.70645892  0.41953725  0.60380659    -0.32600
S3524       S  0.65715336  0.33585623  0.65677111    -0.32610
H3525       H  0.63712705  0.33455718  0.64336369     0.28760
H3526       H  0.72876026  0.41020564  0.60338919     0.28760
H3527       H  0.66013193  0.40493943  0.60455769     0.19350
H3528       H  0.70285847  0.35103482  0.65569200     0.19350
C3529       C  0.86065832  0.45917330  0.63051549    -0.06480
C3530       C  0.86081691  0.44437054  0.64980108    -0.17610
C3531       C  0.86259531  0.42059346  0.64749799     0.10720
C3532       C  0.86761403  0.41112286  0.62563995    -0.06400
C3533       C  0.87214647  0.42633404  0.60718563    -0.17640
C3534       C  0.86745450  0.45011436  0.60901489     0.10750
S3535       S  0.85610184  0.40394599  0.67311644    -0.32600
S3536       S  0.86812529  0.46714368  0.58296449    -0.32610
H3537       H  0.84771947  0.47928919  0.58753145     0.28760
H3538       H  0.86709203  0.38357139  0.66684933     0.28760
H3539       H  0.85683860  0.45119861  0.66668825     0.19350
H3540       H  0.87682328  0.41938923  0.59057547     0.19350
C3541       C  0.85518195  0.54750330  0.62633858    -0.06480
C3542       C  0.87715789  0.55640949  0.63112105    -0.17610
C3543       C  0.88080954  0.58049052  0.63189481     0.10720
C3544       C  0.86172501  0.59563205  0.62974026    -0.06400
C3545       C  0.84018424  0.58629561  0.62421455    -0.17640
C3546       C  0.83735294  0.56291382  0.62017504     0.10750
S3547       S  0.90951353  0.59141856  0.63647316    -0.32600
S3548       S  0.80967847  0.55338826  0.60943600    -0.32610
H3549       H  0.81763395  0.53205578  0.60115836     0.28760
H3550       H  0.92084393  0.56996816  0.63590666     0.28760
H3551       H  0.89097619  0.54462604  0.63559246     0.19350
H3552       H  0.82511340  0.59711968  0.62341219     0.19350
C3553       C  0.62564985  0.39310235  0.70539571    -0.06480
C3554       C  0.63042439  0.41128647  0.69003581    -0.17610
C3555       C  0.63323698  0.40729546  0.66669683     0.10720
C3556       C  0.62588765  0.38601963  0.65726099    -0.06400
C3557       C  0.61582077  0.36955853  0.67206726    -0.17640
C3558       C  0.61721820  0.37214861  0.69617795     0.10750
S3559       S  0.64817799  0.42975511  0.65097892    -0.32600
S3560       S  0.61042401  0.34743843  0.71381090    -0.32610
H3561       H  0.63017473  0.34927547  0.72786710     0.28760
H3562       H  0.63839976  0.42532545  0.62937316     0.28760
H3563       H  0.63549160  0.42801223  0.69668982     0.19350
H3564       H  0.60940827  0.35349896  0.66505315     0.19350
C3565       C  0.61438607  0.38844898  0.84210169    -0.06480
C3566       C  0.62399058  0.40861257  0.83225061    -0.17610
C3567       C  0.62310735  0.41314309  0.80897076     0.10720
C3568       C  0.62011508  0.39464328  0.79371251    -0.06400
C3569       C  0.61039775  0.37414520  0.80238787    -0.17640
C3570       C  0.60535969  0.37188321  0.82619512     0.10750
S3571       S  0.62825796  0.44263819  0.79980758    -0.32600
S3572       S  0.58567550  0.34923767  0.83392372    -0.32610
H3573       H  0.57652599  0.36114498  0.85273757     0.28760
H3574       H  0.61869321  0.43988314  0.77761709     0.28760
H3575       H  0.63195417  0.42188929  0.84245145     0.19350
H3576       H  0.60643448  0.36016156  0.79068977     0.19350
C3577       C  0.63217289  0.45702685  0.87669539    -0.06480
C3578       C  0.60904589  0.45200158  0.87147502    -0.17610
C3579       C  0.60051685  0.42929280  0.87344096     0.10720
C3580       C  0.61573863  0.41106155  0.87986058    -0.06400
C3581       C  0.63754953  0.41723145  0.88872963    -0.17640
C3582       C  0.64559053  0.43998302  0.88781144     0.10750
S3583       S  0.57185978  0.42404261  0.86252083    -0.32600
S3584       S  0.67402432  0.44660043  0.89883918    -0.32610
H3585       H  0.67758125  0.42547271  0.91045478     0.28760
H3586       H  0.57041719  0.40102240  0.86986337     0.28760
H3587       H  0.59827990  0.46519087  0.86361348     0.19350
H3588       H  0.64992904  0.40408774  0.89296423     0.19350
C3589       C  0.63679469  0.54417676  0.86589338    -0.06480
C3590       C  0.63775348  0.55867869  0.84640134    -0.17610
C3591       C  0.63464489  0.58248190  0.84798509     0.10720
C3592       C  0.62889263  0.59237780  0.86947055    -0.06400
C3593       C  0.62428408  0.57752579  0.88814045    -0.17640
C3594       C  0.62917495  0.55375883  0.88694374     0.10750
S3595       S  0.63965099  0.59887697  0.82187688    -0.32600
S3596       S  0.62791264  0.53752024  0.91348869    -0.32610
H3597       H  0.64837260  0.52518382  0.90966125     0.28760
H3598       H  0.62814861  0.61906436  0.82819364     0.28760
H3599       H  0.64244283  0.55154591  0.82984370     0.19350
H3600       H  0.61922976  0.58479775  0.90449771     0.19350
C3601       C  0.83837247  0.62584776  0.87286062    -0.06480
C3602       C  0.82974565  0.60321459  0.87252701    -0.17610
C3603       C  0.80630313  0.59876039  0.86951130     0.10720
C3604       C  0.79100556  0.61721052  0.86466500    -0.06400
C3605       C  0.79914702  0.63993475  0.86680062    -0.17640
C3606       C  0.82254502  0.64435824  0.87137990     0.10750
S3607       S  0.79715832  0.56899009  0.87098604    -0.32600
S3608       S  0.83167274  0.67386196  0.87339978    -0.32610
H3609       H  0.83951052  0.67067358  0.89617276     0.28760
H3610       H  0.77435294  0.57384565  0.87738116     0.28760
H3611       H  0.84148325  0.58873912  0.87362583     0.19350
H3612       H  0.78755467  0.65427788  0.86361561     0.19350
C3613       C  0.70406630  0.62364316  0.86143587    -0.06480
C3614       C  0.69665824  0.61440517  0.88245406    -0.17610
C3615       C  0.67344124  0.61531077  0.88866978     0.10720
C3616       C  0.65703337  0.62529104  0.87334791    -0.06400
C3617       C  0.66517622  0.63756641  0.85406815    -0.17640
C3618       C  0.68842374  0.63662905  0.84784401     0.10750
S3619       S  0.66587379  0.60254245  0.91599783    -0.32600
S3620       S  0.69673461  0.65060705  0.82130996    -0.32610
H3621       H  0.72014398  0.65309835  0.82717770     0.28760
H3622       H  0.64485147  0.61424367  0.91819683     0.28760
H3623       H  0.70871262  0.60496719  0.89332207     0.19350
H3624       H  0.65319616  0.64609686  0.84249129     0.19350
C3625       C  0.86807557  0.61283293  0.79674935    -0.06480
C3626       C  0.87929521  0.59838981  0.81289725    -0.17610
C3627       C  0.87997972  0.60366188  0.83651851     0.10720
C3628       C  0.86990578  0.62449896  0.84424652    -0.06400
C3629       C  0.86042214  0.63971438  0.82766151    -0.17640
C3630       C  0.85902097  0.63402585  0.80430870     0.10750
S3631       S  0.89263429  0.58212388  0.85539768    -0.32600
S3632       S  0.84328475  0.65350880  0.78563341    -0.32610
H3633       H  0.83069566  0.63617697  0.77425082     0.28760
H3634       H  0.88204415  0.58847789  0.87598352     0.28760
H3635       H  0.88616320  0.58199045  0.80723485     0.19350
H3636       H  0.85258317  0.65566252  0.83317626     0.19350
C3637       C  0.86273963  0.61828637  0.70901551    -0.06480
C3638       C  0.84195029  0.62213152  0.69717841    -0.17610
C3639       C  0.84122030  0.62529563  0.67321337     0.10720
C3640       C  0.86201329  0.62645299  0.66055769    -0.06400
C3641       C  0.88286585  0.62663956  0.67313158    -0.17640
C3642       C  0.88349358  0.62193381  0.69701523     0.10750
S3643       S  0.81334748  0.62527156  0.65945513    -0.32600
S3644       S  0.91111911  0.61774799  0.71052894    -0.32610
H3645       H  0.90696750  0.63402015  0.72785397     0.28760
H3646       H  0.79982760  0.62660544  0.67942456     0.28760
H3647       H  0.82600759  0.61990849  0.70650956     0.19350
H3648       H  0.89894410  0.62847732  0.66402707     0.19350
C3649       C  0.63367202  0.90808953  0.36903514    -0.06480
C3650       C  0.61226424  0.91836590  0.36368952    -0.17610
C3651       C  0.61020097  0.94221978  0.35957513     0.10720
C3652       C  0.62961048  0.95657322  0.36250867    -0.06400
C3653       C  0.64992507  0.94683265  0.37138578    -0.17640
C3654       C  0.65245065  0.92289920  0.37404447     0.10750
S3655       S  0.58332821  0.95258212  0.34776078    -0.32600
S3656       S  0.68057054  0.91224130  0.38146328    -0.32610
H3657       H  0.68980501  0.93312497  0.38966162     0.28760
H3658       H  0.58470321  0.97473396  0.35724116     0.28760
H3659       H  0.59728315  0.90759736  0.36106874     0.19350
H3660       H  0.66479757  0.95791724  0.37364089     0.19350
C3661       C  0.63681846  0.87518017  0.34007515    -0.06480
C3662       C  0.61673277  0.87763908  0.32642030    -0.17610
C3663       C  0.61797007  0.87913045  0.30223092     0.10720
C3664       C  0.63922908  0.87516423  0.29131538    -0.06400
C3665       C  0.65783861  0.86754868  0.30477654    -0.17640
C3666       C  0.65761053  0.86950389  0.32872477     0.10750
S3667       S  0.59257867  0.88829823  0.28670134    -0.32600
S3668       S  0.68526770  0.86912531  0.34280838    -0.32610
H3669       H  0.69692124  0.85598449  0.32623380     0.28760
H3670       H  0.60400172  0.90437287  0.27257615     0.28760
H3671       H  0.60034664  0.88069005  0.33453529     0.19350
H3672       H  0.67403230  0.86416373  0.29625998     0.19350
C3673       C  0.87919049  0.63463274  0.34282299    -0.06480
C3674       C  0.87031804  0.61718443  0.32844577    -0.17610
C3675       C  0.87473589  0.61739996  0.30456486     0.10720
C3676       C  0.88525017  0.63704935  0.29446527    -0.06400
C3677       C  0.88913268  0.65636092  0.30853458    -0.17640
C3678       C  0.88859463  0.65467164  0.33238107     0.10750
S3679       S  0.86914253  0.59120414  0.28897564    -0.32600
S3680       S  0.90294318  0.67791286  0.34751098    -0.32610
H3681       H  0.89286754  0.67466147  0.36905260     0.28760
H3682       H  0.89013252  0.59157065  0.27703965     0.28760
H3683       H  0.86287858  0.60186500  0.33619896     0.19350
H3684       H  0.89561614  0.67225836  0.30103544     0.19350
C3685       C  0.90759287  0.62740997  0.37555919    -0.06480
C3686       C  0.91715235  0.64356113  0.39100353    -0.17610
C3687       C  0.94064913  0.64870770  0.39106788     0.10720
C3688       C  0.95524427  0.63758754  0.37539560    -0.06400
C3689       C  0.94670822  0.61900370  0.36267886    -0.17640
C3690       C  0.92322889  0.61343517  0.36301082     0.10750
S3691       S  0.95053046  0.67183117  0.40936260    -0.32600
S3692       S  0.91449013  0.58902692  0.34598038    -0.32610
H3693       H  0.89434361  0.58463144  0.35836587     0.28760
H3694       H  0.97369726  0.66475747  0.41015399     0.28760
H3695       H  0.90639808  0.65463922  0.40099463     0.19350
H3696       H  0.95803483  0.60991266  0.35106257     0.19350
C3697       C  0.61859576  0.70628160  0.39097565    -0.06480
C3698       C  0.62661686  0.69932444  0.36938116    -0.17610
C3699       C  0.62701271  0.67592174  0.36340481     0.10720
C3700       C  0.62013553  0.65896169  0.37964880    -0.06400
C3701       C  0.60896283  0.66633955  0.39969680    -0.17640
C3702       C  0.60799487  0.68974258  0.40543250     0.10750
S3703       S  0.63688148  0.66879358  0.33499800    -0.32600
S3704       S  0.59482097  0.69728961  0.43243156    -0.32610
H3705       H  0.59021556  0.72040527  0.42639466     0.28760
H3706       H  0.62437302  0.64805349  0.33370380     0.28760
H3707       H  0.63409848  0.71195044  0.35777378     0.19350
H3708       H  0.60266225  0.65386791  0.41201333     0.19350
C3709       C  0.62940674  0.79299608  0.38499736    -0.06480
C3710       C  0.60935570  0.80633696  0.38654658    -0.17610
C3711       C  0.61003539  0.83036595  0.38257054     0.10720
C3712       C  0.63137815  0.84133852  0.37827320    -0.06400
C3713       C  0.65049801  0.82737041  0.37364054    -0.17640
C3714       C  0.64965137  0.80344462  0.37658646     0.10750
S3715       S  0.58367431  0.84678774  0.38289176    -0.32600
S3716       S  0.67571669  0.78734566  0.37154595    -0.32610
H3717       H  0.66476708  0.76605004  0.36761490     0.28760
H3718       H  0.56876716  0.82801097  0.38664367     0.28760
H3719       H  0.59360720  0.79820866  0.39230483     0.19350
H3720       H  0.66668091  0.83490126  0.36892050     0.19350
C3721       C  0.79126916  0.64040252  0.37669140    -0.06480
C3722       C  0.80629073  0.65697479  0.36760354    -0.17610
C3723       C  0.83015953  0.65380723  0.36799897     0.10720
C3724       C  0.83956160  0.63239793  0.37543569    -0.06400
C3725       C  0.82406736  0.61459443  0.38135915    -0.17640
C3726       C  0.80023803  0.61856063  0.38287936     0.10750
S3727       S  0.84752275  0.67892598  0.36282587    -0.32600
S3728       S  0.78279979  0.59594344  0.39512326    -0.32610
H3729       H  0.76984269  0.61057040  0.40928487     0.28760
H3730       H  0.83072379  0.69229116  0.35133020     0.28760
H3731       H  0.79934993  0.67371746  0.36284860     0.19350
H3732       H  0.83067239  0.59808475  0.38709246     0.19350
C3733       C  0.70328121  0.63721982  0.38181772    -0.06480
C3734       C  0.69041573  0.63649406  0.40221739    -0.17610
C3735       C  0.66641395  0.63559296  0.40169406     0.10720
C3736       C  0.65482221  0.63222251  0.38045157    -0.06400
C3737       C  0.66799666  0.62887537  0.36046861    -0.17640
C3738       C  0.69200952  0.63220511  0.36079072     0.10750
S3739       S  0.65113783  0.64103273  0.42811911    -0.32600
S3740       S  0.70690152  0.63255569  0.33377841    -0.32610
H3741       H  0.72046798  0.61331114  0.33978565     0.28760
H3742       H  0.67024591  0.64093170  0.44316952     0.28760
H3743       H  0.69914176  0.63968318  0.41846765     0.19350
H3744       H  0.65941696  0.62543954  0.34421568     0.19350
C3745       C  0.86334532  0.63528404  0.45648991    -0.06480
C3746       C  0.86497391  0.61321654  0.44680467    -0.17610
C3747       C  0.86770388  0.61046077  0.42287908     0.10720
C3748       C  0.86780579  0.63028073  0.40836309    -0.06400
C3749       C  0.86755048  0.65217694  0.41848581    -0.17640
C3750       C  0.86687171  0.65482085  0.44225875     0.10750
S3751       S  0.86952223  0.58127770  0.41236697    -0.32600
S3752       S  0.86861582  0.68383901  0.45337349    -0.32610
H3753       H  0.87577112  0.67730520  0.47571921     0.28760
H3754       H  0.87054898  0.58643528  0.38883627     0.28760
H3755       H  0.86250306  0.59812377  0.45764478     0.19350
H3756       H  0.86788593  0.66749116  0.40768054     0.19350
C3757       C  0.85780073  0.62940158  0.54397256    -0.06480
C3758       C  0.87828285  0.63772850  0.55378710    -0.17610
C3759       C  0.88156408  0.63765888  0.57786882     0.10720
C3760       C  0.86339069  0.63059760  0.59260308    -0.06400
C3761       C  0.84393609  0.62045958  0.58218825    -0.17640
C3762       C  0.84149047  0.61881515  0.55838582     0.10750
S3763       S  0.90913311  0.64715719  0.58848829    -0.32600
S3764       S  0.81567072  0.60528515  0.54733295    -0.32610
H3765       H  0.82473673  0.60007180  0.52554190     0.28760
H3766       H  0.90810203  0.63440184  0.60912767     0.28760
H3767       H  0.89119515  0.64548718  0.54279274     0.19350
H3768       H  0.82943727  0.61507048  0.59205232     0.19350
C3769       C  0.78969843  0.86771613  0.61557507    -0.06480
C3770       C  0.80260864  0.87057267  0.59538296    -0.17610
C3771       C  0.82647991  0.87306023  0.59609972     0.10720
C3772       C  0.83797577  0.87498141  0.61763837    -0.06400
C3773       C  0.82461601  0.87550229  0.63781134    -0.17640
C3774       C  0.80074778  0.87129960  0.63703384     0.10750
S3775       S  0.84099206  0.87040889  0.56888218    -0.32600
S3776       S  0.78600379  0.86730876  0.66387478    -0.32610
H3777       H  0.77073386  0.88566642  0.65953149     0.28760
H3778       H  0.85855593  0.88609714  0.57368938     0.28760
H3779       H  0.79430063  0.86807483  0.57876336     0.19350
H3780       H  0.83316659  0.87672346  0.65443553     0.19350
C3781       C  0.70196772  0.85937690  0.62175877    -0.06480
C3782       C  0.68881671  0.84169147  0.63163293    -0.17610
C3783       C  0.66475095  0.84229829  0.63134478     0.10720
C3784       C  0.65309525  0.86228882  0.62312475    -0.06400
C3785       C  0.66668141  0.88153984  0.61684886    -0.17640
C3786       C  0.69077189  0.87998368  0.61506906     0.10750
S3787       S  0.65036978  0.81576223  0.63822588    -0.32600
S3788       S  0.70577887  0.90401071  0.60225420    -0.32610
H3789       H  0.72034634  0.89056122  0.58851324     0.28760
H3790       H  0.66821775  0.80574212  0.65143270     0.28760
H3791       H  0.69748899  0.82590802  0.63683311     0.19350
H3792       H  0.65847268  0.89744563  0.61151535     0.19350
C3793       C  0.86151615  0.71079363  0.61412665    -0.06480
C3794       C  0.84061437  0.69866855  0.61423411    -0.17610
C3795       C  0.83992466  0.67475898  0.61688959     0.10720
C3796       C  0.86040291  0.66248345  0.62247943    -0.06400
C3797       C  0.88048892  0.67538409  0.62701607    -0.17640
C3798       C  0.88149243  0.69921065  0.62199677     0.10750
S3799       S  0.81259308  0.66171100  0.60987907    -0.32600
S3800       S  0.90908882  0.71314013  0.62287333    -0.32610
H3801       H  0.90276690  0.72739294  0.64131602     0.28760
H3802       H  0.81807294  0.63960128  0.61713968     0.28760
H3803       H  0.82491389  0.70756299  0.60917482     0.19350
H3804       H  0.89613679  0.66651393  0.63210528     0.19350
C3805       C  0.86992417  0.79819758  0.60806288    -0.06480
C3806       C  0.88296236  0.81343928  0.59445235    -0.17610
C3807       C  0.88316234  0.83731171  0.59847171     0.10720
C3808       C  0.87014594  0.84624099  0.61706264    -0.06400
C3809       C  0.85918985  0.83044576  0.63201075    -0.17640
C3810       C  0.85853577  0.80682065  0.62752729     0.10750
S3811       S  0.89941972  0.85443018  0.57812448    -0.32600
S3812       S  0.84087701  0.78910571  0.64597631    -0.32610
H3813       H  0.82992067  0.77713440  0.62793985     0.28760
H3814       H  0.89327889  0.87641021  0.58544652     0.28760
H3815       H  0.89175677  0.80680532  0.57945598     0.19350
H3816       H  0.84968123  0.83677068  0.64666356     0.19350
C3817       C  0.63918007  0.87504508  0.45640695    -0.06480
C3818       C  0.65904456  0.87721782  0.44303861    -0.17610
C3819       C  0.65832363  0.87278917  0.41958598     0.10720
C3820       C  0.63696396  0.87363517  0.40751510    -0.06400
C3821       C  0.61694754  0.87750586  0.42062425    -0.17640
C3822       C  0.61761940  0.87628684  0.44496134     0.10750
S3823       S  0.68475963  0.86118471  0.40862455    -0.32600
S3824       S  0.59067159  0.87433037  0.45992684    -0.32610
H3825       H  0.59758266  0.85591798  0.47430284     0.28760
H3826       H  0.67911185  0.86592883  0.38616991     0.28760
H3827       H  0.67575395  0.87725664  0.45156064     0.19350
H3828       H  0.60045603  0.87905611  0.41206168     0.19350
C3829       C  0.62805419  0.86766370  0.54404399    -0.06480
C3830       C  0.62088708  0.84702729  0.55454751    -0.17610
C3831       C  0.61897939  0.84513859  0.57848373     0.10720
C3832       C  0.62170222  0.86499693  0.59228318    -0.06400
C3833       C  0.62420739  0.88655610  0.58114877    -0.17640
C3834       C  0.62853749  0.88799049  0.55733064     0.10750
S3835       S  0.61651822  0.81662419  0.59079598    -0.32600
S3836       S  0.63651305  0.91572310  0.54559546    -0.32610
H3837       H  0.65206967  0.90755133  0.52912997     0.28760
H3838       H  0.61081189  0.80489899  0.57036018     0.28760
H3839       H  0.62020105  0.83151618  0.54420838     0.19350
H3840       H  0.62535690  0.90210517  0.59132915     0.19350
C3841       C  0.37044104  0.63140416  0.90782555    -0.06480
C3842       C  0.37835013  0.64963178  0.92166027    -0.17610
C3843       C  0.37325247  0.65044037  0.94524690     0.10720
C3844       C  0.36101139  0.63205122  0.95555391    -0.06400
C3845       C  0.35689829  0.61208413  0.94267312    -0.17640
C3846       C  0.36194054  0.61141134  0.91907403     0.10750
S3847       S  0.38035929  0.67654419  0.96053448    -0.32600
S3848       S  0.35671307  0.58467675  0.90423340    -0.32610
H3849       H  0.36948189  0.59034166  0.88451317     0.28760
H3850       H  0.38183112  0.66635195  0.98253422     0.28760
H3851       H  0.38668541  0.66434083  0.91390330     0.19350
H3852       H  0.34835955  0.59748131  0.95067002     0.19350
C3853       C  0.33907855  0.64065376  0.87848083    -0.06480
C3854       C  0.32397870  0.62227018  0.87317439    -0.17610
C3855       C  0.29982349  0.62500380  0.87474518     0.10720
C3856       C  0.29050893  0.64745617  0.87746685    -0.06400
C3857       C  0.30608494  0.66604629  0.87732707    -0.17640
C3858       C  0.32923216  0.66265739  0.88200799     0.10750
S3859       S  0.28261609  0.59921720  0.87531513    -0.32600
S3860       S  0.34320037  0.68654942  0.89619516    -0.32610
H3861       H  0.36492563  0.68150027  0.88821570     0.28760
H3862       H  0.26984182  0.60604951  0.89462799     0.28760
H3863       H  0.33089016  0.60528710  0.87000458     0.19350
H3864       H  0.29972142  0.68363658  0.87785014     0.19350
C3865       C  0.36821028  0.90736097  0.63652015    -0.06480
C3866       C  0.36526928  0.91983300  0.61577213    -0.17610
C3867       C  0.36176856  0.94376010  0.61572385     0.10720
C3868       C  0.36252055  0.95576422  0.63678016    -0.06400
C3869       C  0.36910980  0.94383888  0.65690506    -0.17640
C3870       C  0.37195425  0.91988952  0.65710130     0.10750
S3871       S  0.35415671  0.95738196  0.58869518    -0.32600
S3872       S  0.37953954  0.90708620  0.68446447    -0.32610
H3873       H  0.38845412  0.88667472  0.67567999     0.28760
H3874       H  0.33695712  0.97174001  0.59769634     0.28760
H3875       H  0.36360467  0.91060888  0.59965972     0.19350
H3876       H  0.37045481  0.95314695  0.67303326     0.19350
C3877       C  0.33652300  0.87761022  0.63630512    -0.06480
C3878       C  0.32308938  0.88328740  0.61675375    -0.17610
C3879       C  0.29902702  0.88516261  0.61812990     0.10720
C3880       C  0.28794343  0.87964897  0.63902192    -0.06400
C3881       C  0.30111874  0.87084683  0.65738457    -0.17640
C3882       C  0.32510880  0.87134099  0.65691102     0.10750
S3883       S  0.28389397  0.89765167  0.59393575    -0.32600
S3884       S  0.34040537  0.86580809  0.68356782    -0.32610
H3885       H  0.32170244  0.85754411  0.69648905     0.28760
H3886       H  0.26686835  0.88047131  0.59345722     0.28760
H3887       H  0.33140076  0.88795929  0.60076836     0.19350
H3888       H  0.29252280  0.86671574  0.67340945     0.19350
C3889       C  0.38181966  0.79418120  0.62736023    -0.06480
C3890       C  0.39177002  0.80748251  0.60985888    -0.17610
C3891       C  0.38624390  0.83089535  0.60745025     0.10720
C3892       C  0.37174124  0.84149430  0.62382808    -0.06400
C3893       C  0.35828865  0.82694659  0.63782735    -0.17640
C3894       C  0.36337414  0.80342402  0.63998992     0.10750
S3895       S  0.40056280  0.84719765  0.58519706    -0.32600
S3896       S  0.34849545  0.78730156  0.66205239    -0.32610
H3897       H  0.35112500  0.76555861  0.65189802     0.28760
H3898       H  0.38568475  0.86634541  0.58618302     0.28760
H3899       H  0.40504512  0.80007778  0.59915478     0.19350
H3900       H  0.34638515  0.83391317  0.64990595     0.19350
C3901       C  0.38675988  0.70859476  0.62154803    -0.06480
C3902       C  0.40434072  0.69472080  0.61306514    -0.17610
C3903       C  0.40209951  0.67076078  0.61310190     0.10720
C3904       C  0.38042261  0.66055184  0.61813853    -0.06400
C3905       C  0.36142137  0.67519511  0.62154237    -0.17640
C3906       C  0.36462499  0.69898112  0.62465471     0.10750
S3907       S  0.42861607  0.65492982  0.61509362    -0.32600
S3908       S  0.34140572  0.71494013  0.63731554    -0.32610
H3909       H  0.34119815  0.73197967  0.62000195     0.28760
H3910       H  0.44183709  0.67047855  0.60194448     0.28760
H3911       H  0.42124946  0.70231580  0.61084720     0.19350
H3912       H  0.34494239  0.66765058  0.62597890     0.19350
C3913       C  0.40291749  0.86864834  0.63762503    -0.06480
C3914       C  0.41649459  0.88645898  0.62790045    -0.17610
C3915       C  0.44026438  0.88812777  0.63306646     0.10720
C3916       C  0.45110055  0.86996481  0.64545518    -0.06400
C3917       C  0.43782830  0.85074556  0.65167199    -0.17640
C3918       C  0.41420847  0.85165638  0.65117206     0.10750
S3919       S  0.45538518  0.91360558  0.62373437    -0.32600
S3920       S  0.40033756  0.83253937  0.67135607    -0.32610
H3921       H  0.38182788  0.84718011  0.67532162     0.28760
H3922       H  0.47062131  0.91434988  0.64266756     0.28760
H3923       H  0.40867924  0.89934661  0.61679714     0.19350
H3924       H  0.44575038  0.83605109  0.66029160     0.19350
C3925       C  0.53802247  0.86700987  0.63851402    -0.06480
C3926       C  0.55121187  0.88680763  0.64274163    -0.17610
C3927       C  0.57482085  0.88735258  0.63781498     0.10720
C3928       C  0.58582717  0.86744347  0.62908579    -0.06400
C3929       C  0.57173093  0.84926109  0.62138026    -0.17640
C3930       C  0.54814175  0.84858464  0.62642488     0.10750
S3931       S  0.59000170  0.91380528  0.64365824    -0.32600
S3932       S  0.53246262  0.82272038  0.61915794    -0.32610
H3933       H  0.51056014  0.83301493  0.61848089     0.28760
H3934       H  0.60867532  0.90911569  0.62916147     0.28760
H3935       H  0.54342739  0.90138356  0.65134525     0.19350
H3936       H  0.57919839  0.83449170  0.61315960     0.19350
C3937       C  0.37718070  0.64416329  0.70396348    -0.06480
C3938       C  0.36830731  0.62360381  0.69456875    -0.17610
C3939       C  0.36585853  0.62110481  0.67023521     0.10720
C3940       C  0.37696394  0.63730170  0.65526414    -0.06400
C3941       C  0.38543104  0.65757568  0.66585994    -0.17640
C3942       C  0.38180170  0.66242505  0.68866381     0.10750
S3943       S  0.34587273  0.59981339  0.65966597    -0.32600
S3944       S  0.38378152  0.69246444  0.69705055    -0.32610
H3945       H  0.37058590  0.68982657  0.71715451     0.28760
H3946       H  0.33943167  0.59078009  0.68125113     0.28760
H3947       H  0.36281241  0.60996574  0.70611856     0.19350
H3948       H  0.39387811  0.67113846  0.65642667     0.19350
C3949       C  0.36964442  0.63791304  0.79186298    -0.06480
C3950       C  0.36068213  0.65616371  0.80466621    -0.17610
C3951       C  0.36356825  0.65695334  0.82864822     0.10720
C3952       C  0.37271966  0.63752271  0.84067195    -0.06400
C3953       C  0.37725914  0.61748015  0.82782301    -0.17640
C3954       C  0.37659121  0.61771928  0.80364380     0.10750
S3955       S  0.35953508  0.68460093  0.84175597    -0.32600
S3956       S  0.38793378  0.59302739  0.78881511    -0.32610
H3957       H  0.37490833  0.59643163  0.76857737     0.28760
H3958       H  0.34395709  0.69348072  0.82523733     0.28760
H3959       H  0.35563259  0.67174097  0.79548026     0.19350
H3960       H  0.38304462  0.60193880  0.83645876     0.19350
C3961       C  0.45440568  0.63265635  0.86522758    -0.06480
C3962       C  0.44381995  0.65367148  0.87069925    -0.17610
C3963       C  0.41982868  0.65571418  0.87224557     0.10720
C3964       C  0.40571814  0.63585919  0.87022100    -0.06400
C3965       C  0.41669448  0.61426584  0.86808341    -0.17640
C3966       C  0.44066997  0.61252978  0.86489610     0.10750
S3967       S  0.40793119  0.68432479  0.87408163    -0.32600
S3968       S  0.45216960  0.58475624  0.85745916    -0.32610
H3969       H  0.47134583  0.58646028  0.87219185     0.28760
H3970       H  0.42857232  0.69623533  0.87859076     0.28760
H3971       H  0.45433683  0.66911741  0.87102094     0.19350
H3972       H  0.40643740  0.59871907  0.86717321     0.19350
C3973       C  0.54195417  0.62228923  0.86320010    -0.06480
C3974       C  0.54937245  0.63011132  0.88483148    -0.17610
C3975       C  0.57290365  0.63072096  0.89055615     0.10720
C3976       C  0.58957582  0.62440082  0.87403924    -0.06400
C3977       C  0.58177043  0.61411614  0.85352407    -0.17640
C3978       C  0.55830749  0.61246394  0.84825192     0.10750
S3979       S  0.58058849  0.64020896  0.91899846    -0.32600
S3980       S  0.55032518  0.59971827  0.82101218    -0.32610
H3981       H  0.52751789  0.59453682  0.82721933     0.28760
H3982       H  0.60029043  0.62612226  0.92045510     0.28760
H3983       H  0.53697472  0.63727443  0.89668775     0.19350
H3984       H  0.59382812  0.60860345  0.84069820     0.19350
C3985       C  0.63159560  0.87770053  0.84227183    -0.06480
C3986       C  0.64852236  0.86863709  0.82758615    -0.17610
C3987       C  0.64379350  0.86449981  0.80427758     0.10720
C3988       C  0.62216556  0.87080168  0.79502641    -0.06400
C3989       C  0.60697391  0.88368509  0.80864883    -0.17640
C3990       C  0.61122294  0.88694585  0.83230010     0.10750
S3991       S  0.66466365  0.84817268  0.78832446    -0.32600
S3992       S  0.58844207  0.89816613  0.85006551    -0.32610
H3993       H  0.57293674  0.90365602  0.83210377     0.28760
H3994       H  0.64869062  0.83274167  0.77856675     0.28760
H3995       H  0.66416277  0.86153205  0.83508830     0.19350
H3996       H  0.59048582  0.88866975  0.80133173     0.19350
C3997       C  0.61881427  0.85649143  0.70787921    -0.06480
C3998       C  0.61599922  0.83670744  0.69424226    -0.17610
C3999       C  0.61175296  0.83848765  0.67073541     0.10720
C4000       C  0.61697153  0.85936091  0.65904138    -0.06400
C4001       C  0.62514783  0.87807494  0.67222157    -0.17640
C4002       C  0.62429507  0.87748257  0.69652010     0.10750
S4003       S  0.59670345  0.81418237  0.65839428    -0.32600
S4004       S  0.62788895  0.90439710  0.71142756    -0.32610
H4005       H  0.60832139  0.90139919  0.72527696     0.28760
H4006       H  0.60423561  0.81753965  0.63601256     0.28760
H4007       H  0.61312874  0.82008764  0.70245732     0.19350
H4008       H  0.62975368  0.89404807  0.66366295     0.19350
C4009       C  0.61093116  0.70657785  0.86738140    -0.06480
C4010       C  0.61912128  0.69736510  0.88835439    -0.17610
C4011       C  0.62298301  0.67347424  0.89100990     0.10720
C4012       C  0.61726775  0.65824255  0.87282636    -0.06400
C4013       C  0.61119842  0.66780675  0.85133355    -0.17640
C4014       C  0.60891269  0.69164950  0.84819340     0.10750
S4015       S  0.63439303  0.66342801  0.91808664    -0.32600
S4016       S  0.60253338  0.70189418  0.81936430    -0.32610
H4017       H  0.61131811  0.72428160  0.82268982     0.28760
H4018       H  0.65567189  0.65761576  0.90834849     0.28760
H4019       H  0.62145134  0.70862683  0.90304069     0.19350
H4020       H  0.60765628  0.65649879  0.83691343     0.19350
C4021       C  0.61505792  0.79456569  0.86667131    -0.06480
C4022       C  0.62989609  0.80294330  0.88399179    -0.17610
C4023       C  0.63809660  0.82603585  0.88318860     0.10720
C4024       C  0.62787344  0.84222565  0.86744964    -0.06400
C4025       C  0.61396051  0.83268658  0.84979518    -0.17640
C4026       C  0.61023913  0.80920759  0.84781104     0.10750
S4027       S  0.66370911  0.83205452  0.89971272    -0.32600
S4028       S  0.59976380  0.79885335  0.82031641    -0.32610
H4029       H  0.60857134  0.77634559  0.82293438     0.28760
H4030       H  0.67087736  0.85065242  0.88579260     0.28760
H4031       H  0.63573764  0.79137499  0.89756615     0.19350
H4032       H  0.60640292  0.84319428  0.83638316     0.19350
loop_ 
_geom_bond_atom_site_label_1 
_geom_bond_atom_site_label_2 
_geom_bond_distance 
_geom_bond_site_symmetry_2 
_ccdc_geom_bond_type 
O1           Mg3   2.146       .  S
O1           Mg9   2.171       .  S
O1           C36   1.235   1_554  S
C2           O15   1.236       .  S
C2           O39   1.272   1_554  A
C2           H41   1.081       .  S
Mg3          O32   2.153       .  S
Mg3          O47   2.301       .  S
Mg3          O43   2.273       .  S
Mg3          O14   2.288       .  S
O4          Mg46   2.146       .  S
O4          Mg29   2.134       .  S
O4           C25   1.235       .  S
O5           C36   1.269       .  A
O5          Mg29   2.295       .  S
C6            O8   1.271       .  A
C6           O20   1.274   1_554  A
C6         C1215   1.477       .  S
O7           C35   1.266       .  A
O7           Mg9   2.289       .  S
O8          Mg40   2.254       .  S
Mg9          O15   2.157       .  S
Mg9          O23   2.302       .  S
Mg9          O11   2.297       .  S
C10          O48   1.272       .  A
C10          O16   1.275       .  A
C10        C1226   1.481       .  S
O11          C18   1.278   1_554  A
H12          C25   1.081       .  S
C13          O27   1.235       .  S
C13          O28   1.268   1_556  A
C13          H38   1.081       .  S
O14          C37   1.268   1_554  A
O15         Mg29   2.170   1_554  S
O16         Mg46   2.295       .  S
C17          O30   1.269       .  A
C17          O22   1.269       .  A
C17        C1251   1.472       .  S
C18          O45   1.266       .  A
C18        C1242   1.473       .  S
Mg19         O26   2.125       .  S
Mg19         O27   2.157       .  S
Mg19         O20   2.287       .  S
Mg19         O21   2.298       .  S
Mg19         O48   2.259       .  S
O21          C25   1.269       .  A
O22         Mg29   2.270       .  S
O23          C42   1.278       .  A
O24          C44   1.272       .  A
O24         Mg40   2.269       .  S
O26         Mg40   2.159   1_556  S
O26          C37   1.235       .  S
O27         Mg46   2.118       .  S
O28         Mg40   2.283       .  S
Mg29         O45   2.236       .  S
O30         Mg46   2.251       .  S
H31          C36   1.081       .  S
O32         Mg40   2.134       .  S
O32          C35   1.232       .  S
H33          C35   1.081       .  S
H34          C37   1.081       .  S
O39         Mg46   2.310       .  S
C42          O47   1.277       .  A
C42        C1233   1.491       .  S
O43          C44   1.274       .  A
C44        C1260   1.478       .  S
O49         Mg51   2.167       .  S
O49         Mg57   2.137       .  S
O49          C84   1.237       .  S
C50          O63   1.236       .  S
C50          O87   1.272       .  A
C50          H89   1.081       .  S
Mg51         O80   2.146       .  S
Mg51         O95   2.339       .  S
Mg51         O91   2.266       .  S
Mg51         O62   2.310       .  S
O52         Mg94   2.140       .  S
O52         Mg77   2.132       .  S
O52          C73   1.235       .  S
O53          C84   1.273       .  A
O53         Mg77   2.319       .  S
C54          O56   1.269       .  A
C54          O68   1.271       .  A
C54         C932   1.473       .  S
O55          C83   1.273       .  A
O55         Mg57   2.322       .  S
O56         Mg88   2.269       .  S
Mg57         O63   2.156       .  S
Mg57         O71   2.262       .  S
Mg57         O59   2.328       .  S
C58          O96   1.267       .  A
C58          O64   1.273       .  A
C58         C923   1.462       .  S
O59          C66   1.275       .  A
H60          C73   1.081       .  S
C61          O75   1.234       .  S
C61          O76   1.268       .  A
C61          H86   1.081       .  S
O62          C85   1.270       .  A
O63         Mg77   2.143       .  S
O64         Mg94   2.288       .  S
C65          O78   1.269       .  A
C65          O70   1.275       .  A
C65         C887   1.473       .  S
C66          O93   1.268       .  A
C66         C896   1.472       .  S
Mg67         O74   2.135       .  S
Mg67         O75   2.145       .  S
Mg67         O68   2.295       .  S
Mg67         O69   2.297       .  S
Mg67         O96   2.230       .  S
O69          C73   1.269       .  A
O70         Mg77   2.316       .  S
O71          C90   1.271       .  A
O72          C92   1.265       .  A
O72         Mg88   2.252       .  S
O74         Mg88   2.140       .  S
O74          C85   1.235       .  S
O75         Mg94   2.130       .  S
O76         Mg88   2.293       .  S
Mg77         O93   2.243       .  S
O78         Mg94   2.252       .  S
H79          C84   1.081       .  S
O80         Mg88   2.179       .  S
O80          C83   1.235       .  S
H81          C83   1.081       .  S
H82          C85   1.081       .  S
O87         Mg94   2.308       .  S
C90          O95   1.276       .  A
C90         C905   1.488       .  S
O91          C92   1.272       .  A
C92         C916   1.465       .  S
O97         Mg99   2.159       .  S
O97        Mg105   2.165       .  S
O97         C132   1.235       .  S
C98         O111   1.231       .  S
C98         O135   1.265       .  A
C98         H137   1.081       .  S
Mg99        O128   2.170       .  S
Mg99        O143   2.334       .  S
Mg99        O139   2.274       .  S
Mg99        O110   2.289       .  S
O100       Mg142   2.180       .  S
O100       Mg125   2.160       .  S
O100        C121   1.235       .  S
O101        C132   1.270       .  A
O101       Mg125   2.300       .  S
C102        O104   1.269       .  A
C102        O116   1.268       .  A
C102        C789   1.473       .  S
O103        C131   1.265       .  A
O103       Mg105   2.272       .  S
O104       Mg136   2.249       .  S
Mg105       O111   2.149       .  S
Mg105       O119   2.207       .  S
Mg105       O107   2.256       .  S
C106        O144   1.263       .  A
C106        O112   1.277       .  A
C106        C798   1.470       .  S
O107        C114   1.266       .  A
H108        C121   1.081       .  S
C109        O123   1.237       .  S
C109        O124   1.272       .  A
C109        H134   1.081       .  S
O110        C133   1.266       .  A
O111       Mg125   2.155       .  S
O112       Mg142   2.298       .  S
C113        O126   1.278       .  A
C113        O118   1.284       .  A
C113        C816   1.500       .  S
C114        O141   1.281       .  A
C114        C807   1.476       .  S
Mg115       O122   2.127       .  S
Mg115       O123   2.175       .  S
Mg115       O116   2.271       .  S
Mg115       O117   2.299       .  S
Mg115       O144   2.216       .  S
O117        C121   1.270       .  A
O118       Mg125   2.357       .  S
O119        C138   1.267       .  A
O120        C140   1.275       .  A
O120       Mg136   2.297       .  S
O122       Mg136   2.149       .  S
O122        C133   1.233       .  S
O123       Mg142   2.166       .  S
O124       Mg136   2.307       .  S
Mg125       O141   2.303       .  S
O126       Mg142   2.292       .  S
H127        C132   1.081       .  S
O128       Mg136   2.123       .  S
O128        C131   1.234       .  S
H129        C131   1.081       .  S
H130        C133   1.081       .  S
O135       Mg142   2.291       .  S
C138        O143   1.276       .  A
C138        C780   1.483       .  S
O139        C140   1.278       .  A
C140        C771   1.484       .  S
O145       Mg147   2.147       .  S
O145       Mg153   2.142       .  S
O145        C180   1.235       .  S
C146        O159   1.236       .  S
C146        O183   1.270       .  A
C146        H185   1.081       .  S
Mg147       O176   2.148       .  S
Mg147       O191   2.306       .  S
Mg147       O187   2.282       .  S
Mg147       O158   2.311   1_554  S
O148       Mg190   2.135       .  S
O148       Mg173   2.136   1_556  S
O148        C169   1.237       .  S
O149        C180   1.270       .  A
O149       Mg173   2.304       .  S
C150        O152   1.275       .  A
C150        O164   1.272       .  A
C150        C981   1.482       .  S
O151        C179   1.273       .  A
O151       Mg153   2.314       .  S
O152       Mg184   2.313       .  S
Mg153       O159   2.139       .  S
Mg153       O167   2.248       .  S
Mg153       O155   2.276       .  S
C154        O192   1.267       .  A
C154        O160   1.269       .  A
C154        C963   1.467       .  S
O155        C162   1.270       .  A
H156        C169   1.081       .  S
C157        O171   1.236       .  S
C157        O172   1.272       .  A
C157        H182   1.081       .  S
O158        C181   1.272       .  A
O159       Mg173   2.151       .  S
O160       Mg190   2.265       .  S
C161        O174   1.270       .  A
C161        O166   1.276   1_556  A
C161        C954   1.480       .  S
C162        O189   1.271       .  A
C162        C990   1.470       .  S
Mg163       O170   2.146       .  S
Mg163       O171   2.143       .  S
Mg163       O164   2.293       .  S
Mg163       O165   2.310       .  S
Mg163       O192   2.256       .  S
O165        C169   1.272       .  A
O166       Mg173   2.311       .  S
O167        C186   1.265       .  A
O168        C188   1.278   1_556  A
O168       Mg184   2.311       .  S
O170       Mg184   2.141       .  S
O170        C181   1.236       .  S
O171       Mg190   2.161       .  S
O172       Mg184   2.315       .  S
Mg173       O189   2.278       .  S
O174       Mg190   2.284       .  S
H175        C180   1.081       .  S
O176       Mg184   2.158   1_554  S
O176        C179   1.238       .  S
H177        C179   1.081       .  S
H178        C181   1.081       .  S
O183       Mg190   2.302   1_554  S
C186        O191   1.276       .  A
C186        C945   1.466       .  S
O187        C188   1.271       .  A
C188        C972   1.475       .  S
O193       Mg195   2.139       .  S
O193       Mg201   2.157       .  S
O193        C228   1.234       .  S
C194        O207   1.233       .  S
C194        O231   1.268       .  A
C194        H233   1.081       .  S
Mg195       O224   2.178       .  S
Mg195       O239   2.286       .  S
Mg195       O235   2.231       .  S
Mg195       O206   2.279       .  S
O196       Mg238   2.171       .  S
O196       Mg221   2.148       .  S
O196        C217   1.236       .  S
O197        C228   1.269       .  A
O197       Mg221   2.303       .  S
C198        O200   1.272       .  A
C198        O212   1.270       .  A
C198       C1206   1.477       .  S
O199        C227   1.267       .  A
O199       Mg201   2.289       .  S
O200       Mg232   2.267       .  S
Mg201       O207   2.152       .  S
Mg201       O215   2.253       .  S
Mg201       O203   2.274       .  S
C202        O240   1.265       .  A
C202        O208   1.275       .  A
C202       C1179   1.468       .  S
O203        C210   1.270       .  A
H204        C217   1.081       .  S
C205        O219   1.235       .  S
C205        O220   1.269       .  A
C205        H230   1.081       .  S
O206        C229   1.264       .  A
O207       Mg221   2.153       .  S
O208       Mg238   2.281       .  S
C209        O222   1.273       .  A
C209        O214   1.275       .  A
C209       C1170   1.484       .  S
C210        O237   1.272       .  A
C210       C1188   1.475       .  S
Mg211       O218   2.118       .  S
Mg211       O219   2.166       .  S
Mg211       O212   2.268       .  S
Mg211       O213   2.298       .  S
Mg211       O240   2.233       .  S
O213        C217   1.270       .  A
O214       Mg221   2.299       .  S
O215        C234   1.271       .  A
O216        C236   1.272       .  A
O216       Mg232   2.275       .  S
O218       Mg232   2.147       .  S
O218        C229   1.232       .  S
O219       Mg238   2.136       .  S
O220       Mg232   2.296       .  S
Mg221       O237   2.260       .  S
O222       Mg238   2.275       .  S
H223        C228   1.081       .  S
O224       Mg232   2.147       .  S
O224        C227   1.233       .  S
H225        C227   1.081       .  S
H226        C229   1.081       .  S
O231       Mg238   2.302       .  S
C234        O239   1.271       .  A
C234       C1197   1.477       .  S
O235        C236   1.271       .  A
C236       C1161   1.473       .  S
O241       Mg243   2.167       .  S
O241       Mg249   2.139       .  S
O241        C276   1.236       .  S
C242        O255   1.236       .  S
C242        O279   1.271       .  A
C242        H281   1.081       .  S
Mg243       O272   2.140       .  S
Mg243       O287   2.290       .  S
Mg243       O283   2.267       .  S
Mg243       O254   2.294   1_565  S
O244       Mg286   2.144       .  S
O244       Mg269   2.136   1_545  S
O244        C265   1.237       .  S
O245        C276   1.273       .  A
O245       Mg269   2.321       .  S
C246        O248   1.272       .  A
C246        O260   1.267       .  A
C246       C1584   1.462       .  S
O247        C275   1.272       .  A
O247       Mg249   2.312       .  S
O248       Mg280   2.247       .  S
Mg249       O255   2.146       .  S
Mg249       O263   2.242       .  S
Mg249       O251   2.315       .  S
C250        O288   1.264       .  A
C250        O256   1.271       .  A
C250       C1539   1.462       .  S
O251        C258   1.273       .  A
H252        C265   1.081       .  S
C253        O267   1.235       .  S
C253        O268   1.268       .  A
C253        H278   1.081       .  S
O254        C277   1.268       .  A
O255       Mg269   2.136       .  S
O256       Mg286   2.292       .  S
C257        O270   1.266       .  A
C257        O262   1.275   1_545  A
C257       C1566   1.467       .  S
C258        O285   1.270       .  A
C258       C1575   1.475       .  S
Mg259       O266   2.127       .  S
Mg259       O267   2.136       .  S
Mg259       O260   2.287       .  S
Mg259       O261   2.300       .  S
Mg259       O288   2.208       .  S
O261        C265   1.271       .  A
O262       Mg269   2.315       .  S
O263        C282   1.268       .  A
O264        C284   1.274       .  A
O264       Mg280   2.317       .  S
O266       Mg280   2.136       .  S
O266        C277   1.234       .  S
O267       Mg286   2.120       .  S
O268       Mg280   2.292       .  S
Mg269       O285   2.259       .  S
O270       Mg286   2.225       .  S
H271        C276   1.081       .  S
O272       Mg280   2.144   1_565  S
O272        C275   1.236       .  S
H273        C275   1.081       .  S
H274        C277   1.081       .  S
O279       Mg286   2.310   1_565  S
C282        O287   1.271       .  A
C282       C1557   1.467       .  S
O283        C284   1.272   1_565  A
C284       C1548   1.475       .  S
O289       Mg291   2.135       .  S
O289       Mg297   2.138       .  S
O289        C324   1.235       .  S
C290        O303   1.235       .  S
C290        O327   1.269       .  A
C290        H329   1.081       .  S
Mg291       O320   2.135       .  S
Mg291       O335   2.281       .  S
Mg291       O331   2.245       .  S
Mg291       O302   2.310       .  S
O292       Mg334   2.144       .  S
O292       Mg317   2.143       .  S
O292        C313   1.236       .  S
O293        C324   1.270       .  A
O293       Mg317   2.301       .  S
C294        O296   1.268       .  A
C294        O308   1.271       .  A
C294        C847   1.470       .  S
O295        C323   1.272       .  A
O295       Mg297   2.307       .  S
O296       Mg328   2.256       .  S
Mg297       O303   2.127       .  S
Mg297       O311   2.242       .  S
Mg297       O299   2.296       .  S
C298        O336   1.268       .  A
C298        O304   1.271       .  A
C298        C829   1.467       .  S
O299        C306   1.273       .  A
H300        C313   1.081       .  S
C301        O315   1.236       .  S
C301        O316   1.272       .  A
C301        H326   1.081       .  S
O302        C325   1.272       .  A
O303       Mg317   2.137       .  S
O304       Mg334   2.283       .  S
C305        O318   1.269       .  A
C305        O310   1.273       .  A
C305        C876   1.466       .  S
C306        O333   1.271       .  A
C306        C865   1.472       .  S
Mg307       O314   2.142       .  S
Mg307       O315   2.140       .  S
Mg307       O308   2.290       .  S
Mg307       O309   2.306       .  S
Mg307       O336   2.253       .  S
O309        C313   1.271       .  A
O310       Mg317   2.302       .  S
O311        C330   1.268       .  A
O312        C332   1.273       .  A
O312       Mg328   2.307       .  S
O314       Mg328   2.131       .  S
O314        C325   1.236       .  S
O315       Mg334   2.147       .  S
O316       Mg328   2.316       .  S
Mg317       O333   2.259       .  S
O318       Mg334   2.250       .  S
H319        C324   1.081       .  S
O320       Mg328   2.137       .  S
O320        C323   1.237       .  S
H321        C323   1.081       .  S
H322        C325   1.081       .  S
O327       Mg334   2.296       .  S
C330        O335   1.270       .  A
C330        C856   1.461       .  S
O331        C332   1.267       .  A
C332        C838   1.469       .  S
O337       Mg339   2.146       .  S
O337       Mg345   2.162       .  S
O337        C372   1.234       .  S
C338        O351   1.237   1_655  S
C338        O375   1.271       .  A
C338        H377   1.081       .  S
Mg339       O368   2.157   1_455  S
Mg339       O383   2.267       .  S
Mg339       O379   2.240       .  S
Mg339       O350   2.280       .  S
O340       Mg382   2.152       .  S
O340       Mg365   2.141   1_655  S
O340        C361   1.235   1_655  S
O341        C372   1.268       .  A
O341       Mg365   2.293       .  S
C342        O344   1.271       .  A
C342        O356   1.274       .  A
C342       C1008   1.477       .  S
O343        C371   1.269   1_455  A
O343       Mg345   2.295       .  S
O344       Mg376   2.250       .  S
Mg345       O351   2.153       .  S
Mg345       O359   2.283       .  S
Mg345       O347   2.351       .  S
C346        O384   1.268       .  A
C346        O352   1.277       .  A
C346       C1035   1.477       .  S
O347        C354   1.282       .  A
H348        C361   1.081       .  S
C349        O363   1.234       .  S
C349        O364   1.266       .  A
C349        H374   1.081       .  S
O350        C373   1.267   1_455  A
O351       Mg365   2.159       .  S
O352       Mg382   2.312       .  S
C353        O366   1.271       .  A
C353        O358   1.277   1_655  A
C353       C1026   1.481       .  S
C354        O381   1.273       .  A
C354       C1044   1.489       .  S
Mg355       O362   2.110       .  S
Mg355       O363   2.163       .  S
Mg355       O356   2.292       .  S
Mg355       O357   2.293       .  S
Mg355       O384   2.220       .  S
O357        C361   1.269   1_655  A
O358       Mg365   2.306       .  S
O359        C378   1.279       .  A
O360        C380   1.270       .  A
O360       Mg376   2.269       .  S
O362       Mg376   2.159       .  S
O362        C373   1.235       .  S
O363       Mg382   2.130       .  S
O364       Mg376   2.284       .  S
Mg365       O381   2.254       .  S
O366       Mg382   2.254       .  S
H367        C372   1.081       .  S
O368       Mg376   2.135       .  S
O368        C371   1.235       .  S
H369        C371   1.081       .  S
H370        C373   1.081       .  S
O375       Mg382   2.304       .  S
C378        O383   1.269       .  A
C378       C1017   1.476       .  S
O379        C380   1.270   1_455  A
C380        C999   1.473       .  S
O385       Mg387   2.154       .  S
O385       Mg393   2.143       .  S
O385        C420   1.235       .  S
C386        O399   1.237       .  S
C386        O423   1.273       .  A
C386        H425   1.081       .  S
Mg387       O416   2.140       .  S
Mg387       O431   2.278       .  S
Mg387       O427   2.270       .  S
Mg387       O398   2.291       .  S
O388       Mg430   2.139       .  S
O388       Mg413   2.154       .  S
O388        C409   1.238       .  S
O389        C420   1.271       .  A
O389       Mg413   2.313       .  S
C390        O392   1.270       .  A
C390        O404   1.274       .  A
C390       C1449   1.469       .  S
O391        C419   1.271       .  A
O391       Mg393   2.302       .  S
O392       Mg424   2.247       .  S
Mg393       O399   2.150       .  S
Mg393       O407   2.250       .  S
Mg393       O395   2.296       .  S
C394        O432   1.268       .  A
C394        O400   1.272       .  A
C394       C1476   1.468       .  S
O395        C402   1.272       .  A
H396        C409   1.081       .  S
C397        O411   1.236       .  S
C397        O412   1.271       .  A
C397        H422   1.081       .  S
O398        C421   1.268       .  A
O399       Mg413   2.139       .  S
O400       Mg430   2.302       .  S
C401        O414   1.267       .  A
C401        O406   1.278       .  A
C401       C1467   1.475       .  S
C402        O429   1.273       .  A
C402       C1431   1.479       .  S
Mg403       O410   2.122       .  S
Mg403       O411   2.134       .  S
Mg403       O404   2.306       .  S
Mg403       O405   2.314       .  S
Mg403       O432   2.242       .  S
O405        C409   1.274       .  A
O406       Mg413   2.327       .  S
O407        C426   1.268       .  A
O408        C428   1.274       .  A
O408       Mg424   2.310       .  S
O410       Mg424   2.140       .  S
O410        C421   1.235       .  S
O411       Mg430   2.136       .  S
O412       Mg424   2.301       .  S
Mg413       O429   2.297       .  S
O414       Mg430   2.243       .  S
H415        C420   1.081       .  S
O416       Mg424   2.130       .  S
O416        C419   1.236       .  S
H417        C419   1.081       .  S
H418        C421   1.081       .  S
O423       Mg430   2.314       .  S
C426        O431   1.271       .  A
C426       C1458   1.464       .  S
O427        C428   1.272       .  A
C428       C1440   1.473       .  S
O433       Mg435   2.146       .  S
O433       Mg441   2.147       .  S
O433        C468   1.236       .  S
C434        O447   1.236       .  S
C434        O471   1.272       .  A
C434        H473   1.081       .  S
Mg435       O464   2.142       .  S
Mg435       O479   2.302       .  S
Mg435       O475   2.252       .  S
Mg435       O446   2.298       .  S
O436       Mg478   2.131       .  S
O436       Mg461   2.142       .  S
O436        C457   1.237       .  S
O437        C468   1.271       .  A
O437       Mg461   2.309       .  S
C438        O440   1.272       .  A
C438        O452   1.271       .  A
C438       C1145   1.470       .  S
O439        C467   1.269       .  A
O439       Mg441   2.297       .  S
O440       Mg472   2.258       .  S
Mg441       O447   2.148       .  S
Mg441       O455   2.257       .  S
Mg441       O443   2.274       .  S
C442        O480   1.267       .  A
C442        O448   1.271       .  A
C442       C1152   1.464       .  S
O443        C450   1.270       .  A
H444        C457   1.081       .  S
C445        O459   1.236       .  S
C445        O460   1.271       .  A
C445        H470   1.081       .  S
O446        C469   1.269       .  A
O447       Mg461   2.140       .  S
O448       Mg478   2.301       .  S
C449        O462   1.267       .  A
C449        O454   1.271       .  A
C449       C1107   1.474       .  S
C450        O477   1.268       .  A
C450       C1125   1.466       .  S
Mg451       O458   2.132       .  S
Mg451       O459   2.135       .  S
Mg451       O452   2.292       .  S
Mg451       O453   2.311       .  S
Mg451       O480   2.238       .  S
O453        C457   1.272       .  A
O454       Mg461   2.294       .  S
O455        C474   1.269       .  A
O456        C476   1.275       .  A
O456       Mg472   2.311       .  S
O458       Mg472   2.138       .  S
O458        C469   1.235       .  S
O459       Mg478   2.136       .  S
O460       Mg472   2.304       .  S
Mg461       O477   2.256       .  S
O462       Mg478   2.243       .  S
H463        C468   1.081       .  S
O464       Mg472   2.137       .  S
O464        C467   1.234       .  S
H465        C467   1.081       .  S
H466        C469   1.081       .  S
O471       Mg478   2.316       .  S
C474        O479   1.273       .  A
C474       C1116   1.469       .  S
O475        C476   1.271       .  A
C476       C1134   1.471       .  S
O481       Mg483   2.129       .  S
O481       Mg489   2.134       .  S
O481        C516   1.236       .  S
C482        O495   1.235       .  S
C482        O519   1.269       .  A
C482        H521   1.081       .  S
Mg483       O512   2.132       .  S
Mg483       O527   2.295       .  S
Mg483       O523   2.242       .  S
Mg483       O494   2.317       .  S
O484       Mg526   2.144       .  S
O484       Mg509   2.139       .  S
O484        C505   1.235       .  S
O485        C516   1.271       .  A
O485       Mg509   2.303       .  S
C486        O488   1.266       .  A
C486        O500   1.270       .  A
C486       C1404   1.465       .  S
O487        C515   1.271       .  A
O487       Mg489   2.310       .  S
O488       Mg520   2.239       .  S
Mg489       O495   2.131       .  S
Mg489       O503   2.244       .  S
Mg489       O491   2.294       .  S
C490        O528   1.270       .  A
C490        O496   1.272       .  A
C490       C1377   1.473       .  S
O491        C498   1.271       .  A
H492        C505   1.081       .  S
C493        O507   1.235       .  S
C493        O508   1.271       .  A
C493        H518   1.081       .  S
O494        C517   1.273       .  A
O495       Mg509   2.136       .  S
O496       Mg526   2.296       .  S
C497        O510   1.268       .  A
C497        O502   1.272       .  A
C497       C1413   1.462       .  S
C498        O525   1.269       .  A
C498       C1422   1.467       .  S
Mg499       O506   2.154       .  S
Mg499       O507   2.134       .  S
Mg499       O500   2.279       .  S
Mg499       O501   2.303       .  S
Mg499       O528   2.269       .  S
O501        C505   1.270       .  A
O502       Mg509   2.294       .  S
O503        C522   1.268       .  A
O504        C524   1.270       .  A
O504       Mg520   2.292       .  S
O506       Mg520   2.137       .  S
O506        C517   1.236       .  S
O507       Mg526   2.133       .  S
O508       Mg520   2.311       .  S
Mg509       O525   2.246       .  S
O510       Mg526   2.235       .  S
H511        C516   1.081       .  S
O512       Mg520   2.138       .  S
O512        C515   1.236       .  S
H513        C515   1.081       .  S
H514        C517   1.081       .  S
O519       Mg526   2.298       .  S
C522        O527   1.271       .  A
C522       C1386   1.468       .  S
O523        C524   1.266       .  A
C524       C1395   1.467       .  S
O529       Mg531   2.127       .  S
O529       Mg537   2.162       .  S
O529        C564   1.234       .  S
C530        O543   1.235       .  S
C530        O567   1.268   1_655  A
C530        H569   1.081       .  S
Mg531       O560   2.152       .  S
Mg531       O575   2.307       .  S
Mg531       O571   2.249       .  S
Mg531       O542   2.303       .  S
O532       Mg574   2.157   1_655  S
O532       Mg557   2.129       .  S
O532        C553   1.234       .  S
O533        C564   1.267       .  A
O533       Mg557   2.286       .  S
C534        O536   1.272       .  A
C534        O548   1.280       .  A
C534       C1503   1.486       .  S
O535        C563   1.268   1_655  A
O535       Mg537   2.295       .  S
O536       Mg568   2.242       .  S
Mg537       O543   2.121       .  S
Mg537       O551   2.234       .  S
Mg537       O539   2.287       .  S
C538        O576   1.278       .  A
C538        O544   1.271       .  A
C538       C1512   1.481       .  S
O539        C546   1.273       .  A
H540        C553   1.081       .  S
C541        O555   1.234       .  S
C541        O556   1.267       .  A
C541        H566   1.081       .  S
O542        C565   1.271       .  A
O543       Mg557   2.163       .  S
O544       Mg574   2.278       .  S
C545        O558   1.269   1_655  A
C545        O550   1.269       .  A
C545       C1521   1.471       .  S
C546        O573   1.269       .  A
C546       C1530   1.473       .  S
Mg547       O554   2.155       .  S
Mg547       O555   2.162       .  S
Mg547       O548   2.344       .  S
Mg547       O549   2.290   1_455  S
Mg547       O576   2.278       .  S
O549        C553   1.267       .  A
O550       Mg557   2.264       .  S
O551        C570   1.269       .  A
O552        C572   1.274   1_455  A
O552       Mg568   2.293       .  S
O554       Mg568   2.159       .  S
O554        C565   1.236   1_455  S
O555       Mg574   2.135       .  S
O556       Mg568   2.286       .  S
Mg557       O573   2.233       .  S
O558       Mg574   2.236       .  S
H559        C564   1.081       .  S
O560       Mg568   2.144   1_655  S
O560        C563   1.234   1_655  S
H561        C563   1.081       .  S
H562        C565   1.081       .  S
O567       Mg574   2.286       .  S
C570        O575   1.277       .  A
C570       C1494   1.478       .  S
O571        C572   1.271       .  A
C572       C1485   1.476       .  S
O577       Mg579   2.142   1_556  S
O577       Mg585   2.167       .  S
O577        C612   1.237       .  S
C578        O591   1.236   1_655  S
C578        O615   1.270       .  A
C578        H617   1.081       .  S
Mg579       O608   2.158   1_455  S
Mg579       O623   2.301       .  S
Mg579       O619   2.256       .  S
Mg579       O590   2.296       .  S
O580       Mg622   2.151       .  S
O580       Mg605   2.126   1_655  S
O580        C601   1.234   1_655  S
O581        C612   1.270       .  A
O581       Mg605   2.297       .  S
C582        O584   1.272       .  A
C582        O596   1.279       .  A
C582       C1080   1.488       .  S
O583        C611   1.268       .  A
O583       Mg585   2.294   1_655  S
O584       Mg616   2.238       .  S
Mg585       O591   2.138       .  S
Mg585       O599   2.250       .  S
Mg585       O587   2.293       .  S
C586        O624   1.273   1_556  A
C586        O592   1.277       .  A
C586       C1064   1.482       .  S
O587        C594   1.273       .  A
H588        C601   1.081       .  S
C589        O603   1.234       .  S
C589        O604   1.268   1_556  A
C589        H614   1.081       .  S
O590        C613   1.268   1_455  A
O591       Mg605   2.153       .  S
O592       Mg622   2.330       .  S
C593        O606   1.275       .  A
C593        O598   1.273   1_655  A
C593       C1053   1.483       .  S
C594        O621   1.268       .  A
C594       C1098   1.474       .  S
Mg595       O602   2.151       .  S
Mg595       O603   2.169   1_554  S
Mg595       O596   2.342       .  S
Mg595       O597   2.282       .  S
Mg595       O624   2.248       .  S
O597        C601   1.267   1_654  A
O598       Mg605   2.293       .  S
O599        C618   1.271       .  A
O600        C620   1.275   1_655  A
O600       Mg616   2.304       .  S
O602       Mg616   2.154       .  S
O602        C613   1.234       .  S
O603       Mg622   2.148       .  S
O604       Mg616   2.287       .  S
Mg605       O621   2.235       .  S
O606       Mg622   2.268       .  S
H607        C612   1.081   1_554  S
O608       Mg616   2.139       .  S
O608        C611   1.234   1_554  S
H609        C611   1.081       .  S
H610        C613   1.081       .  S
O615       Mg622   2.298       .  S
C618        O623   1.275   1_556  A
C618       C1089   1.480       .  S
O619        C620   1.272       .  A
C620       C1071   1.480   1_455  S
O625       Mg627   2.145       .  S
O625       Mg633   2.154   1_565  S
O625        C660   1.233   1_554  S
C626        O639   1.237       .  S
C626        O663   1.271       .  A
C626        H665   1.081   1_556  S
Mg627       O656   2.163       .  S
Mg627       O671   2.300       .  S
Mg627       O667   2.238       .  S
Mg627       O638   2.287       .  S
O628       Mg670   2.168       .  S
O628       Mg653   2.150       .  S
O628        C649   1.236   1_545  S
O629        C660   1.268   1_545  A
O629       Mg653   2.301       .  S
C630        O632   1.278   1_556  A
C630        O644   1.277       .  A
C630       C1278   1.485       .  S
O631        C659   1.270       .  A
O631       Mg633   2.302       .  S
O632       Mg664   2.266       .  S
Mg633       O639   2.151   1_554  S
Mg633       O647   2.280       .  S
Mg633       O635   2.306       .  S
C634        O672   1.276       .  A
C634        O640   1.271   1_565  A
C634       C1269   1.488       .  S
O635        C642   1.277   1_554  A
H636        C649   1.081       .  S
C637        O651   1.233   1_545  S
C637        O652   1.266   1_546  A
C637        H662   1.081       .  S
O638        C661   1.267   1_554  A
O639       Mg653   2.171       .  S
O640       Mg670   2.284       .  S
C641        O654   1.264       .  A
C641        O646   1.276       .  A
C641       C1296   1.468       .  S
C642        O669   1.275       .  A
C642       C1287   1.492       .  S
Mg643       O650   2.157       .  S
Mg643       O651   2.146       .  S
Mg643       O644   2.317       .  S
Mg643       O645   2.301       .  S
Mg643       O672   2.290       .  S
O645        C649   1.270       .  A
O646       Mg653   2.287       .  S
O647        C666   1.274       .  A
O648        C668   1.278       .  A
O648       Mg664   2.338       .  S
O650       Mg664   2.180   1_556  S
O650        C661   1.234       .  S
O651       Mg670   2.124   1_565  S
O652       Mg664   2.282       .  S
Mg653       O669   2.295       .  S
O654       Mg670   2.224       .  S
H655        C660   1.081       .  S
O656       Mg664   2.166       .  S
O656        C659   1.235   1_565  S
H657        C659   1.081       .  S
H658        C661   1.081       .  S
O663       Mg670   2.301       .  S
C666        O671   1.274   1_545  A
C666       C1305   1.484       .  S
O667        C668   1.272       .  A
C668       C1314   1.486       .  S
O673       Mg675   2.126       .  S
O673       Mg681   2.165       .  S
O673        C708   1.232   1_565  S
C674        O687   1.234   1_565  S
C674        O711   1.267   1_565  A
C674        H713   1.081       .  S
Mg675       O704   2.157       .  S
Mg675       O719   2.301       .  S
Mg675       O715   2.247       .  S
Mg675       O686   2.298   1_565  S
O676       Mg718   2.158       .  S
O676       Mg701   2.154       .  S
O676        C697   1.234       .  S
O677        C708   1.265       .  A
O677       Mg701   2.279       .  S
C678        O680   1.271   1_545  A
C678        O692   1.280       .  A
C678       C1334   1.487       .  S
O679        C707   1.266       .  A
O679       Mg681   2.285       .  S
O680       Mg712   2.232       .  S
Mg681       O687   2.135   1_565  S
Mg681       O695   2.230       .  S
Mg681       O683   2.283       .  S
C682        O720   1.277       .  A
C682        O688   1.271       .  A
C682       C1323   1.483       .  S
O683        C690   1.271   1_565  A
H684        C697   1.081       .  S
C685        O699   1.234       .  S
C685        O700   1.268   1_545  A
C685        H710   1.081       .  S
O686        C709   1.270       .  A
O687       Mg701   2.171       .  S
O688       Mg718   2.291       .  S
C689        O702   1.270       .  A
C689        O694   1.269       .  A
C689       C1370   1.475       .  S
C690        O717   1.272       .  A
C690       C1350   1.476       .  S
Mg691       O698   2.156       .  S
Mg691       O699   2.160       .  S
Mg691       O692   2.352       .  S
Mg691       O693   2.303       .  S
Mg691       O720   2.275       .  S
O693        C697   1.269       .  A
O694       Mg701   2.281       .  S
O695        C714   1.270       .  A
O696        C716   1.274       .  A
O696       Mg712   2.298       .  S
O698       Mg712   2.165   1_545  S
O698        C709   1.235       .  S
O699       Mg718   2.149       .  S
O700       Mg712   2.294       .  S
Mg701       O717   2.239       .  S
O702       Mg718   2.232       .  S
H703        C708   1.081       .  S
O704       Mg712   2.136       .  S
O704        C707   1.234       .  S
H705        C707   1.081       .  S
H706        C709   1.081       .  S
O711       Mg718   2.287       .  S
C714        O719   1.275       .  A
C714       C1359   1.476       .  S
O715        C716   1.271       .  A
C716       C1341   1.477       .  S
O721       Mg723   2.142       .  S
O721       Mg729   2.161   1_565  S
O721        C756   1.235       .  S
C722        O735   1.235       .  S
C722        O759   1.269   1_655  A
C722        H761   1.081       .  S
Mg723       O752   2.161       .  S
Mg723       O767   2.349       .  S
Mg723       O763   2.269       .  S
Mg723       O734   2.295       .  S
O724       Mg766   2.156   1_655  S
O724       Mg749   2.122       .  S
O724        C745   1.235   1_545  S
O725        C756   1.269   1_545  A
O725       Mg749   2.294       .  S
C726        O728   1.272       .  A
C726        O740   1.273       .  A
C726       C1620   1.477       .  S
O727        C755   1.267   1_645  A
O727       Mg729   2.286       .  S
O728       Mg760   2.258       .  S
Mg729       O735   2.147       .  S
Mg729       O743   2.252       .  S
Mg729       O731   2.292       .  S
C730        O768   1.271       .  A
C730        O736   1.274   1_565  A
C730       C1611   1.478       .  S
O731        C738   1.274       .  A
H732        C745   1.081       .  S
C733        O747   1.236   1_545  S
C733        O748   1.269   1_545  A
C733        H758   1.081       .  S
O734        C757   1.269       .  A
O735       Mg749   2.159       .  S
O736       Mg766   2.286       .  S
C737        O750   1.271       .  A
C737        O742   1.275   1_455  A
C737       C1629   1.479   1_455  S
C738        O765   1.270       .  A
C738       C1638   1.474       .  S
Mg739       O746   2.136       .  S
Mg739       O747   2.160       .  S
Mg739       O740   2.283       .  S
Mg739       O741   2.289   1_455  S
Mg739       O768   2.256       .  S
O741        C745   1.268       .  A
O742       Mg749   2.302       .  S
O743        C762   1.273   1_545  A
O744        C764   1.274   1_455  A
O744       Mg760   2.296       .  S
O746       Mg760   2.155       .  S
O746        C757   1.235   1_455  S
O747       Mg766   2.129   1_565  S
O748       Mg760   2.291       .  S
Mg749       O765   2.230       .  S
O750       Mg766   2.255       .  S
H751        C756   1.081       .  S
O752       Mg760   2.143   1_655  S
O752        C755   1.234   1_655  S
H753        C755   1.081       .  S
H754        C757   1.081       .  S
O759       Mg766   2.295       .  S
C762        O767   1.281       .  A
C762       C1602   1.489       .  S
O763        C764   1.277       .  A
C764       C1593   1.482       .  S
C769       C4021   1.496       .  S
C769        C770   1.409       .  A
C769        C774   1.416       .  A
C770        H775   1.085       .  S
C770        C771   1.392       .  A
C771        C772   1.399       .  A
C772        H776   1.084       .  S
C772        C773   1.407       .  A
C773       C4009   1.494       .  S
C773        C774   1.418       .  A
C774        H777   1.083       .  S
C778       C3988   1.482       .  S
C778        C779   1.412       .  A
C778        C783   1.415       .  A
C779        H784   1.082       .  S
C779        C780   1.396       .  A
C780        C781   1.393       .  A
C781        H785   1.083       .  S
C781        C782   1.404       .  A
C782       C3997   1.500       .  S
C782        C783   1.411       .  A
C783        H786   1.082       .  S
C787       C3961   1.496       .  S
C787        C788   1.407       .  A
C787        C792   1.416       .  A
C788        H793   1.085       .  S
C788        C789   1.399       .  A
C789        C790   1.391       .  A
C790        H794   1.085       .  S
C790        C791   1.402       .  A
C791       C3973   1.484       .  S
C791        C792   1.416       .  A
C792        H795   1.082       .  S
C796       C3949   1.479       .  S
C796        C797   1.407       .  A
C796        C801   1.416       .  A
C797        H802   1.085       .  S
C797        C798   1.389       .  A
C798        C799   1.385       .  A
C799        H803   1.084       .  S
C799        C800   1.405       .  A
C800       C3937   1.493       .  S
C800        C801   1.413       .  A
C801        H804   1.082       .  S
C805       C3916   1.490       .  S
C805        C806   1.407       .  A
C805        C810   1.412       .  A
C806        H811   1.086       .  S
C806        C807   1.383       .  A
C807        C808   1.404       .  A
C808        H812   1.084       .  S
C808        C809   1.409       .  A
C809       C3925   1.484       .  S
C809        C810   1.413       .  A
C810        H813   1.082       .  S
C814       C3889   1.473       .  S
C814        C815   1.411       .  A
C814        C819   1.395       .  A
C815        H820   1.080       .  S
C815        C816   1.408       .  A
C816        C817   1.407       .  A
C817        H821   1.084       .  S
C817        C818   1.414       .  A
C818       C3901   1.479       .  S
C818        C819   1.395       .  A
C819        H822   1.083       .  S
C823        C824   1.368       .  D
C823       C3892   1.509       .  S
C823       C3913   1.504       .  S
C824       C3865   1.497       .  S
C824       C3877   1.498       .  S
C825        C826   1.372       .  D
C825       C3952   1.511       .  S
C825       C3964   1.511       .  S
C826       C3841   1.503       .  S
C826       C3853   1.504       .  S
C827       C3829   1.484       .  S
C827        C828   1.407       .  A
C827        C832   1.416       .  A
C828        H833   1.085       .  S
C828        C829   1.390       .  A
C829        C830   1.386       .  A
C830        H834   1.085       .  S
C830        C831   1.409       .  A
C831       C3817   1.495       .  S
C831        C832   1.416       .  A
C832        H835   1.082       .  S
C836       C3805   1.480       .  S
C836        C837   1.403       .  A
C836        C841   1.415       .  A
C837        H842   1.085       .  S
C837        C838   1.392       .  A
C838        C839   1.395       .  A
C839        H843   1.085       .  S
C839        C840   1.409       .  A
C840       C3793   1.496       .  S
C840        C841   1.412       .  A
C841        H844   1.081       .  S
C845       C3781   1.487       .  S
C845        C846   1.404       .  A
C845        C850   1.414       .  A
C846        H851   1.085       .  S
C846        C847   1.391       .  A
C847        C848   1.394       .  A
C848        H852   1.085       .  S
C848        C849   1.408       .  A
C849       C3769   1.492       .  S
C849        C850   1.416       .  A
C850        H853   1.081       .  S
C854       C3745   1.480       .  S
C854        C855   1.402       .  A
C854        C859   1.411       .  A
C855        H860   1.085       .  S
C855        C856   1.389       .  A
C856        C857   1.391       .  A
C857        H861   1.085       .  S
C857        C858   1.404       .  A
C858       C3757   1.478       .  S
C858        C859   1.412       .  A
C859        H862   1.083       .  S
C863       C3733   1.492       .  S
C863        C864   1.407       .  A
C863        C868   1.414       .  A
C864        H869   1.085       .  S
C864        C865   1.391       .  A
C865        C866   1.393       .  A
C866        H870   1.085       .  S
C866        C867   1.408       .  A
C867       C3721   1.489       .  S
C867        C868   1.414       .  A
C868        H871   1.080       .  S
C872       C3697   1.482       .  S
C872        C873   1.413       .  A
C872        C877   1.406       .  A
C873        H878   1.083       .  S
C873        C874   1.409       .  A
C874       C3709   1.482       .  S
C874        C875   1.402       .  A
C875        H879   1.085       .  S
C875        C876   1.396       .  A
C876        C877   1.395       .  A
C877        H880   1.085       .  S
C881        C882   1.374       .  D
C881       C3724   1.509       .  S
C881       C3748   1.490       .  S
C882       C3673   1.494       .  S
C882       C3685   1.517       .  S
C883        C884   1.371       .  D
C883       C3649   1.510       .  S
C883       C3661   1.508       .  S
C884       C3712   1.505       .  S
C884       C3820   1.506       .  S
C885       C3625   1.487       .  S
C885        C886   1.405       .  A
C885        C890   1.416       .  A
C886        H891   1.085       .  S
C886        C887   1.395       .  A
C887        C888   1.398       .  A
C888        H892   1.085       .  S
C888        C889   1.408       .  A
C889       C3637   1.496       .  S
C889        C890   1.413       .  A
C890        H893   1.081       .  S
C894       C3613   1.480       .  S
C894        C895   1.407       .  A
C894        C899   1.411       .  A
C895        H900   1.084       .  S
C895        C896   1.398       .  A
C896        C897   1.398       .  A
C897        H901   1.085       .  S
C897        C898   1.403       .  A
C898       C3604   1.488       .  S
C898        C899   1.408       .  A
C899        H902   1.083       .  S
C903       C3589   1.498       .  S
C903        C904   1.409       .  A
C903        C908   1.410       .  A
C904        H909   1.084       .  S
C904        C905   1.401       .  A
C905        C906   1.402       .  A
C906        H910   1.084       .  S
C906        C907   1.415       .  A
C907       C3577   1.491       .  S
C907        C908   1.410       .  A
C908        H911   1.082       .  S
C912       C3553   1.492       .  S
C912        C913   1.419       .  A
C912        C917   1.411       .  A
C913        H918   1.082       .  S
C913        C914   1.415       .  A
C914       C3568   1.486       .  S
C914        C915   1.405       .  A
C915        H919   1.085       .  S
C915        C916   1.379       .  A
C916        C917   1.382       .  A
C917        H920   1.084       .  S
C921       C3529   1.493       .  S
C921        C922   1.409       .  A
C921        C926   1.416       .  A
C922        H927   1.085       .  S
C922        C923   1.390       .  A
C923        C924   1.384       .  A
C924        H928   1.085       .  S
C924        C925   1.403       .  A
C925       C3541   1.479       .  S
C925        C926   1.413       .  A
C926        H929   1.082       .  S
C930       C3520   1.483       .  S
C930        C931   1.406       .  A
C930        C935   1.408       .  A
C931        H936   1.085       .  S
C931        C932   1.403       .  A
C932        C933   1.397       .  A
C933        H937   1.085       .  S
C933        C934   1.404       .  A
C934       C3508   1.479       .  S
C934        C935   1.408       .  A
C935        H938   1.083       .  S
C939        C940   1.372       .  D
C939       C3505   1.507       .  S
C939       C3532   1.496       .  S
C940       C3481   1.510       .  S
C940       C3493   1.495       .  S
C941        C942   1.383       .  D
C941       C3565   1.532       .  S
C941       C3580   1.520       .  S
C942       C3457   1.505       .  S
C942       C3469   1.497       .  S
C943       C3445   1.491       .  S
C943        C944   1.406       .  A
C943        C948   1.419       .  A
C944        H949   1.085       .  S
C944        C945   1.392       .  A
C945        C946   1.385       .  A
C946        H950   1.084       .  S
C946        C947   1.409       .  A
C947       C3436   1.503       .  S
C947        C948   1.421       .  A
C948        H951   1.082       .  S
C952       C3844   1.482       .  S
C952        C953   1.409       .  A
C952        C957   1.410       .  A
C953        H958   1.085       .  S
C953        C954   1.402       .  A
C954        C955   1.396   1_556  A
C955        H959   1.085       .  S
C955        C956   1.408       .  A
C956       C3421   1.492       .  S
C956        C957   1.409   1_554  A
C957        H960   1.083       .  S
C961       C3856   1.508       .  S
C961        C962   1.407       .  A
C961        C966   1.422       .  A
C962        H967   1.085       .  S
C962        C963   1.384       .  A
C963        C964   1.388       .  A
C964        H968   1.085       .  S
C964        C965   1.410       .  A
C965       C3412   1.498       .  S
C965        C966   1.423       .  A
C966        H969   1.077       .  S
C970       C3385   1.507       .  S
C970        C971   1.413       .  A
C970        C975   1.414       .  A
C971        H976   1.083       .  S
C971        C972   1.391   1_556  A
C972        C973   1.396       .  A
C973        H977   1.084       .  S
C973        C974   1.407       .  A
C974       C3397   1.479       .  S
C974        C975   1.410   1_554  A
C975        H978   1.080       .  S
C979       C3361   1.480       .  S
C979        C980   1.410       .  A
C979        C984   1.404       .  A
C980        H985   1.083       .  S
C980        C981   1.403       .  A
C981        C982   1.402       .  A
C982        H986   1.085       .  S
C982        C983   1.406       .  A
C983       C3373   1.480       .  S
C983        C984   1.404       .  A
C984        H987   1.083       .  S
C988       C3349   1.481       .  S
C988        C989   1.404       .  A
C988        C993   1.409       .  A
C989        H994   1.085       .  S
C989        C990   1.393       .  A
C990        C991   1.396       .  A
C991        H995   1.081       .  S
C991        C992   1.406       .  A
C992       C3337   1.478       .  S
C992        C993   1.407       .  A
C993        H996   1.083       .  S
C997       C3313   1.486       .  S
C997        C998   1.402       .  A
C997       C1002   1.420   1_455  A
C998       H1003   1.085       .  S
C998        C999   1.387   1_455  A
C999       C1000   1.394       .  A
C1000      H1004   1.084       .  S
C1000      C1001   1.410       .  A
C1001      C3325   1.507       .  S
C1001      C1002   1.421       .  A
C1002      H1005   1.082       .  S
C1006      C3289   1.492       .  S
C1006      C1007   1.405       .  A
C1006      C1011   1.414       .  A
C1007      H1012   1.084       .  S
C1007      C1008   1.399       .  A
C1008      C1009   1.397       .  A
C1009      H1013   1.085       .  S
C1009      C1010   1.404       .  A
C1010      C3304   1.485       .  S
C1010      C1011   1.413       .  A
C1011      H1014   1.083       .  S
C1015      C3265   1.497       .  S
C1015      C1016   1.408       .  A
C1015      C1020   1.418       .  A
C1016      H1021   1.085       .  S
C1016      C1017   1.383       .  A
C1017      C1018   1.396       .  A
C1018      H1022   1.084       .  S
C1018      C1019   1.408       .  A
C1019      C3277   1.493       .  S
C1019      C1020   1.420       .  A
C1020      H1023   1.082       .  S
C1024      C3253   1.496       .  S
C1024      C1025   1.410       .  A
C1024      C1029   1.410   1_455  A
C1025      H1030   1.084       .  S
C1025      C1026   1.396   1_455  A
C1026      C1027   1.397       .  A
C1027      H1031   1.084       .  S
C1027      C1028   1.405       .  A
C1028      C3688   1.475       .  S
C1028      C1029   1.408       .  A
C1029      H1032   1.082       .  S
C1033      C3244   1.485       .  S
C1033      C1034   1.404       .  A
C1033      C1038   1.414       .  A
C1034      H1039   1.085       .  S
C1034      C1035   1.394       .  A
C1035      C1036   1.391       .  A
C1036      H1040   1.084       .  S
C1036      C1037   1.410       .  A
C1037      C3676   1.499       .  S
C1037      C1038   1.415       .  A
C1038      H1041   1.079       .  S
C1042      C3229   1.479       .  S
C1042      C1043   1.410       .  A
C1042      C1047   1.401       .  A
C1043      H1048   1.077       .  S
C1043      C1044   1.404       .  A
C1044      C1045   1.403       .  A
C1045      H1049   1.084       .  S
C1045      C1046   1.404       .  A
C1046      C3217   1.472       .  S
C1046      C1047   1.401       .  A
C1047      H1050   1.084       .  S
C1051      C3205   1.489       .  S
C1051      C1052   1.407       .  A
C1051      C1056   1.417       .  A
C1052      H1057   1.085       .  S
C1052      C1053   1.391       .  A
C1053      C1054   1.396   1_655  A
C1054      H1058   1.084       .  S
C1054      C1055   1.409       .  A
C1055      C3193   1.499       .  S
C1055      C1056   1.418   1_455  A
C1056      H1059   1.083       .  S
C1060      C3181   1.510       .  S
C1060      C1061   1.417       .  A
C1060      C1065   1.406       .  A
C1061      H1066   1.081       .  S
C1061      C1062   1.411   1_554  A
C1062      C3169   1.481       .  S
C1062      C1063   1.407       .  A
C1063      H1067   1.083       .  S
C1063      C1064   1.397       .  A
C1064      C1065   1.398   1_556  A
C1065      H1068   1.081       .  S
C1069      C3145   1.486       .  S
C1069      C1070   1.405       .  A
C1069      C1074   1.412   1_455  A
C1070      H1075   1.084       .  S
C1070      C1071   1.399   1_455  A
C1071      C1072   1.403       .  A
C1072      H1076   1.084       .  S
C1072      C1073   1.407       .  A
C1073      C3157   1.493       .  S
C1073      C1074   1.410       .  A
C1074      H1077   1.083       .  S
C1078      C3133   1.489       .  S
C1078      C1079   1.410       .  A
C1078      C1083   1.412       .  A
C1079      H1084   1.072       .  S
C1079      C1080   1.403       .  A
C1080      C1081   1.396       .  A
C1081      H1085   1.084       .  S
C1081      C1082   1.400       .  A
C1082      C3121   1.486       .  S
C1082      C1083   1.408       .  A
C1083      H1086   1.083       .  S
C1087      C3097   1.493       .  S
C1087      C1088   1.404       .  A
C1087      C1092   1.418       .  A
C1088      H1093   1.084       .  S
C1088      C1089   1.398       .  A
C1089      C1090   1.400   1_556  A
C1090      H1094   1.083       .  S
C1090      C1091   1.406       .  A
C1091      C3109   1.502       .  S
C1091      C1092   1.417   1_554  A
C1092      H1095   1.083       .  S
C1096      C3073   1.487       .  S
C1096      C1097   1.406       .  A
C1096      C1101   1.411       .  A
C1097      H1102   1.084       .  S
C1097      C1098   1.396       .  A
C1098      C1099   1.395       .  A
C1099      H1103   1.085       .  S
C1099      C1100   1.402       .  A
C1100      C3085   1.475       .  S
C1100      C1101   1.408       .  A
C1101      H1104   1.083       .  S
C1105      C3061   1.492       .  S
C1105      C1106   1.405       .  A
C1105      C1110   1.413       .  A
C1106      H1111   1.085       .  S
C1106      C1107   1.393       .  A
C1107      C1108   1.392       .  A
C1108      H1112   1.084       .  S
C1108      C1109   1.409       .  A
C1109      C3049   1.498       .  S
C1109      C1110   1.418       .  A
C1110      H1113   1.081       .  S
C1114      C3025   1.484       .  S
C1114      C1115   1.404       .  A
C1114      C1119   1.410       .  A
C1115      H1120   1.085       .  S
C1115      C1116   1.400       .  A
C1116      C1117   1.395       .  A
C1117      H1121   1.085       .  S
C1117      C1118   1.404       .  A
C1118      C3037   1.483       .  S
C1118      C1119   1.411       .  A
C1119      H1122   1.083       .  S
C1123      C3001   1.493       .  S
C1123      C1124   1.405       .  A
C1123      C1128   1.413       .  A
C1124      H1129   1.085       .  S
C1124      C1125   1.390       .  A
C1125      C1126   1.394       .  A
C1126      H1130   1.085       .  S
C1126      C1127   1.404       .  A
C1127      C3013   1.479       .  S
C1127      C1128   1.413       .  A
C1128      H1131   1.082       .  S
C1132      C2989   1.490       .  S
C1132      C1133   1.405       .  A
C1132      C1137   1.419       .  A
C1133      H1138   1.084       .  S
C1133      C1134   1.397       .  A
C1134      C1135   1.396       .  A
C1135      H1139   1.084       .  S
C1135      C1136   1.404       .  A
C1136      C2977   1.500       .  S
C1136      C1137   1.416       .  A
C1137      H1140   1.083       .  S
C1141      C2953   1.487       .  S
C1141      C1142   1.410       .  A
C1141      C1146   1.404       .  A
C1142      H1147   1.081       .  S
C1142      C1143   1.412       .  A
C1143      C2965   1.484       .  S
C1143      C1144   1.408       .  A
C1144      H1148   1.085       .  S
C1144      C1145   1.397       .  A
C1145      C1146   1.390       .  A
C1146      H1149   1.085       .  S
C1150      C2941   1.481       .  S
C1150      C1151   1.408       .  A
C1150      C1155   1.412       .  A
C1151      H1156   1.084       .  S
C1151      C1152   1.394       .  A
C1152      C1153   1.391       .  A
C1153      H1157   1.085       .  S
C1153      C1154   1.401       .  A
C1154      C2929   1.482       .  S
C1154      C1155   1.409       .  A
C1155      H1158   1.083       .  S
C1159      C2917   1.491       .  S
C1159      C1160   1.410       .  A
C1159      C1164   1.419       .  A
C1160      H1165   1.085       .  S
C1160      C1161   1.391       .  A
C1161      C1162   1.383       .  A
C1162      H1166   1.085       .  S
C1162      C1163   1.405       .  A
C1163      C2905   1.493       .  S
C1163      C1164   1.416       .  A
C1164      H1167   1.082       .  S
C1168      C2893   1.483       .  S
C1168      C1169   1.411       .  A
C1168      C1173   1.406       .  A
C1169      H1174   1.084       .  S
C1169      C1170   1.400       .  A
C1170      C1171   1.401       .  A
C1171      H1175   1.084       .  S
C1171      C1172   1.405       .  A
C1172      C2881   1.486       .  S
C1172      C1173   1.407       .  A
C1173      H1176   1.083       .  S
C1177      C2857   1.496       .  S
C1177      C1178   1.402       .  A
C1177      C1182   1.413       .  A
C1178      H1183   1.084       .  S
C1178      C1179   1.388       .  A
C1179      C1180   1.391       .  A
C1180      H1184   1.085       .  S
C1180      C1181   1.406       .  A
C1181      C2869   1.475       .  S
C1181      C1182   1.417       .  A
C1182      H1185   1.082       .  S
C1186      C2845   1.493       .  S
C1186      C1187   1.408       .  A
C1186      C1191   1.412       .  A
C1187      H1192   1.084       .  S
C1187      C1188   1.401       .  A
C1188      C1189   1.391       .  A
C1189      H1193   1.085       .  S
C1189      C1190   1.404       .  A
C1190      C2833   1.481       .  S
C1190      C1191   1.411       .  A
C1191      H1194   1.082       .  S
C1195      C2809   1.483       .  S
C1195      C1196   1.404       .  A
C1195      C1200   1.409       .  A
C1196      H1201   1.085       .  S
C1196      C1197   1.392       .  A
C1197      C1198   1.402       .  A
C1198      H1202   1.084       .  S
C1198      C1199   1.407       .  A
C1199      C2821   1.480       .  S
C1199      C1200   1.411       .  A
C1200      H1203   1.083       .  S
C1204      C2785   1.478       .  S
C1204      C1205   1.404       .  A
C1204      C1209   1.413       .  A
C1205      H1210   1.085       .  S
C1205      C1206   1.390       .  A
C1206      C1207   1.399       .  A
C1207      H1211   1.084       .  S
C1207      C1208   1.408       .  A
C1208      C2797   1.499       .  S
C1208      C1209   1.415       .  A
C1209      H1212   1.082       .  S
C1213      C3472   1.485       .  S
C1213      C1214   1.403       .  A
C1213      C1218   1.408       .  A
C1214      H1219   1.084       .  S
C1214      C1215   1.396   1_556  A
C1215      C1216   1.398       .  A
C1216      H1220   1.085       .  S
C1216      C1217   1.405       .  A
C1217      C2773   1.476       .  S
C1217      C1218   1.409   1_554  A
C1218      H1221   1.083       .  S
C1222      C3460   1.494       .  S
C1222      C1223   1.423       .  A
C1222      C1227   1.407       .  A
C1223      H1228   1.080       .  S
C1223      C1224   1.418       .  A
C1224      C2764   1.508       .  S
C1224      C1225   1.406       .  A
C1225      H1229   1.084       .  S
C1225      C1226   1.395       .  A
C1226      C1227   1.397       .  A
C1227      H1230   1.084       .  S
C1231      C2752   1.503       .  S
C1231      C1232   1.410       .  A
C1231      C1236   1.411       .  A
C1232      H1237   1.083       .  S
C1232      C1233   1.404       .  A
C1233      C1234   1.400       .  A
C1234      H1238   1.084       .  S
C1234      C1235   1.410       .  A
C1235      C2737   1.487       .  S
C1235      C1236   1.412       .  A
C1236      H1239   1.082       .  S
C1240      C2713   1.476       .  S
C1240      C1241   1.408       .  A
C1240      C1245   1.415   1_556  A
C1241      H1246   1.085       .  S
C1241      C1242   1.391       .  A
C1242      C1243   1.386   1_556  A
C1243      H1247   1.083       .  S
C1243      C1244   1.404       .  A
C1244      C2725   1.498       .  S
C1244      C1245   1.414       .  A
C1245      H1248   1.082       .  S
C1249      C2689   1.490       .  S
C1249      C1250   1.403       .  A
C1249      C1254   1.412       .  A
C1250      H1255   1.084       .  S
C1250      C1251   1.396       .  A
C1251      C1252   1.392       .  A
C1252      H1256   1.085       .  S
C1252      C1253   1.405       .  A
C1253      C2701   1.479       .  S
C1253      C1254   1.414       .  A
C1254      H1257   1.082       .  S
C1258      C2668   1.476       .  S
C1258      C1259   1.403       .  A
C1258      C1263   1.413       .  A
C1259      H1264   1.085       .  S
C1259      C1260   1.389       .  A
C1260      C1261   1.398       .  A
C1261      H1265   1.083       .  S
C1261      C1262   1.411       .  A
C1262      C2677   1.504       .  S
C1262      C1263   1.415       .  A
C1263      H1266   1.082       .  S
C1267      C2653   1.492       .  S
C1267      C1268   1.409       .  A
C1267      C1272   1.417   1_565  A
C1268      H1273   1.085       .  S
C1268      C1269   1.391       .  A
C1269      C1270   1.400   1_565  A
C1270      H1274   1.084       .  S
C1270      C1271   1.411       .  A
C1271      C2644   1.503       .  S
C1271      C1272   1.419       .  A
C1272      H1275   1.081       .  S
C1276      C2617   1.479       .  S
C1276      C1277   1.411       .  A
C1276      C1281   1.407       .  A
C1277      H1282   1.083       .  S
C1277      C1278   1.404       .  A
C1278      C1279   1.395   1_556  A
C1279      H1283   1.084       .  S
C1279      C1280   1.405       .  A
C1280      C2632   1.486       .  S
C1280      C1281   1.405   1_554  A
C1281      H1284   1.083   1_556  S
C1285      C2605   1.486       .  S
C1285      C1286   1.415       .  A
C1285      C1290   1.408       .  A
C1286      H1291   1.084       .  S
C1286      C1287   1.399       .  A
C1287      C1288   1.399   1_556  A
C1288      H1292   1.083       .  S
C1288      C1289   1.411       .  A
C1289      C2593   1.500       .  S
C1289      C1290   1.410   1_554  A
C1290      H1293   1.079   1_556  S
C1294      C2572   1.490       .  S
C1294      C1295   1.401       .  A
C1294      C1299   1.413       .  A
C1295      H1300   1.085       .  S
C1295      C1296   1.384       .  A
C1296      C1297   1.392       .  A
C1297      H1301   1.085       .  S
C1297      C1298   1.407       .  A
C1298      C2581   1.476       .  S
C1298      C1299   1.416       .  A
C1299      H1302   1.082       .  S
C1303      C2548   1.481       .  S
C1303      C1304   1.406       .  A
C1303      C1308   1.404   1_565  A
C1304      H1309   1.084       .  S
C1304      C1305   1.407   1_565  A
C1305      C1306   1.401       .  A
C1306      H1310   1.084       .  S
C1306      C1307   1.406       .  A
C1307      C2557   1.475       .  S
C1307      C1308   1.404       .  A
C1308      H1311   1.084       .  S
C1312      C2521   1.494       .  S
C1312      C1313   1.402       .  A
C1312      C1317   1.411       .  A
C1313      H1318   1.084       .  S
C1313      C1314   1.395       .  A
C1314      C1315   1.404       .  A
C1315      H1319   1.082       .  S
C1315      C1316   1.414       .  A
C1316      C2533   1.489       .  S
C1316      C1317   1.413       .  A
C1317      H1320   1.083       .  S
C1321      C2497   1.478       .  S
C1321      C1322   1.409       .  A
C1321      C1326   1.407       .  A
C1322      H1327   1.084       .  S
C1322      C1323   1.406       .  A
C1323      C1324   1.392       .  A
C1324      H1328   1.085       .  S
C1324      C1325   1.405       .  A
C1325      C2509   1.482       .  S
C1325      C1326   1.404       .  A
C1326      H1329   1.083       .  S
C1330      C2473   1.489       .  S
C1330      C1331   1.407   1_565  A
C1330      C1335   1.403       .  A
C1331      H1336   1.082   1_545  S
C1331      C1332   1.410       .  A
C1332      C2488   1.488       .  S
C1332      C1333   1.413       .  A
C1333      H1337   1.083       .  S
C1333      C1334   1.404       .  A
C1334      C1335   1.400   1_545  A
C1335      H1338   1.084       .  S
C1339      C2461   1.495       .  S
C1339      C1340   1.405       .  A
C1339      C1344   1.414       .  A
C1340      H1345   1.084       .  S
C1340      C1341   1.400       .  A
C1341      C1342   1.398       .  A
C1342      H1346   1.084       .  S
C1342      C1343   1.404       .  A
C1343      C2449   1.492       .  S
C1343      C1344   1.418       .  A
C1344      H1347   1.083       .  S
C1348      C3652   1.486       .  S
C1348      C1349   1.409       .  A
C1348      C1353   1.415   1_565  A
C1349      H1354   1.085       .  S
C1349      C1350   1.398   1_565  A
C1350      C1351   1.387       .  A
C1351      H1355   1.084       .  S
C1351      C1352   1.403       .  A
C1352      C2437   1.491       .  S
C1352      C1353   1.412       .  A
C1353      H1356   1.082   1_545  S
C1357      C3664   1.485       .  S
C1357      C1358   1.405       .  A
C1357      C1362   1.409       .  A
C1358      H1363   1.085       .  S
C1358      C1359   1.392       .  A
C1359      C1360   1.395       .  A
C1360      H1364   1.084       .  S
C1360      C1361   1.408       .  A
C1361      C2425   1.487       .  S
C1361      C1362   1.413       .  A
C1362      H1365   1.083       .  S
C1366      C2413   1.490       .  S
C1366      C1367   1.410       .  A
C1366      C1371   1.403       .  A
C1367      H1372   1.082       .  S
C1367      C1368   1.414       .  A
C1368      C2401   1.479       .  S
C1368      C1369   1.410       .  A
C1369      H1373   1.084       .  S
C1369      C1370   1.398       .  A
C1370      C1371   1.385       .  A
C1371      H1374   1.084       .  S
C1375      C2377   1.488       .  S
C1375      C1376   1.406       .  A
C1375      C1380   1.412       .  A
C1376      H1381   1.085       .  S
C1376      C1377   1.401       .  A
C1377      C1378   1.397       .  A
C1378      H1382   1.085       .  S
C1378      C1379   1.404       .  A
C1379      C2392   1.484       .  S
C1379      C1380   1.410       .  A
C1380      H1383   1.082       .  S
C1384      C2353   1.484       .  S
C1384      C1385   1.406       .  A
C1384      C1389   1.413       .  A
C1385      H1390   1.085       .  S
C1385      C1386   1.392       .  A
C1386      C1387   1.392       .  A
C1387      H1391   1.085       .  S
C1387      C1388   1.405       .  A
C1388      C2365   1.487       .  S
C1388      C1389   1.412       .  A
C1389      H1392   1.081       .  S
C1393      C2329   1.481       .  S
C1393      C1394   1.404       .  A
C1393      C1398   1.410       .  A
C1394      H1399   1.085       .  S
C1394      C1395   1.392       .  A
C1395      C1396   1.391       .  A
C1396      H1400   1.085       .  S
C1396      C1397   1.406       .  A
C1397      C2341   1.482       .  S
C1397      C1398   1.411       .  A
C1398      H1401   1.083       .  S
C1402      C2317   1.486       .  S
C1402      C1403   1.404       .  A
C1402      C1407   1.414       .  A
C1403      H1408   1.084       .  S
C1403      C1404   1.387       .  A
C1404      C1405   1.392       .  A
C1405      H1409   1.085       .  S
C1405      C1406   1.406       .  A
C1406      C2305   1.484       .  S
C1406      C1407   1.413       .  A
C1407      H1410   1.083       .  S
C1411      C2293   1.484       .  S
C1411      C1412   1.405       .  A
C1411      C1416   1.417       .  A
C1412      H1417   1.085       .  S
C1412      C1413   1.390       .  A
C1413      C1414   1.390       .  A
C1414      H1418   1.085       .  S
C1414      C1415   1.404       .  A
C1415      C2281   1.491       .  S
C1415      C1416   1.416       .  A
C1416      H1419   1.083       .  S
C1420      C2257   1.489       .  S
C1420      C1421   1.403       .  A
C1420      C1425   1.412       .  A
C1421      H1426   1.085       .  S
C1421      C1422   1.392       .  A
C1422      C1423   1.394       .  A
C1423      H1427   1.085       .  S
C1423      C1424   1.406       .  A
C1424      C2272   1.482       .  S
C1424      C1425   1.414       .  A
C1425      H1428   1.082       .  S
C1429      C2245   1.483       .  S
C1429      C1430   1.408       .  A
C1429      C1434   1.407       .  A
C1430      H1435   1.082       .  S
C1430      C1431   1.401       .  A
C1431      C1432   1.400       .  A
C1432      H1436   1.085       .  S
C1432      C1433   1.405       .  A
C1433      C2233   1.480       .  S
C1433      C1434   1.408       .  A
C1434      H1437   1.083       .  S
C1438      C2221   1.482       .  S
C1438      C1439   1.402       .  A
C1438      C1443   1.408       .  A
C1439      H1444   1.085       .  S
C1439      C1440   1.398       .  A
C1440      C1441   1.401       .  A
C1441      H1445   1.084       .  S
C1441      C1442   1.407       .  A
C1442      C2209   1.483       .  S
C1442      C1443   1.411       .  A
C1443      H1446   1.083       .  S
C1447      C2197   1.479       .  S
C1447      C1448   1.406       .  A
C1447      C1452   1.411       .  A
C1448      H1453   1.085       .  S
C1448      C1449   1.394       .  A
C1449      C1450   1.390       .  A
C1450      H1454   1.085       .  S
C1450      C1451   1.406       .  A
C1451      C2185   1.490       .  S
C1451      C1452   1.410       .  A
C1452      H1455   1.081       .  S
C1456      C2161   1.493       .  S
C1456      C1457   1.406       .  A
C1456      C1461   1.418       .  A
C1457      H1462   1.085       .  S
C1457      C1458   1.384       .  A
C1458      C1459   1.389       .  A
C1459      H1463   1.085       .  S
C1459      C1460   1.409       .  A
C1460      C2176   1.493       .  S
C1460      C1461   1.417       .  A
C1461      H1464   1.082       .  S
C1465      C2137   1.483       .  S
C1465      C1466   1.407       .  A
C1465      C1470   1.409       .  A
C1466      H1471   1.085       .  S
C1466      C1467   1.391       .  A
C1467      C1468   1.396       .  A
C1468      H1472   1.085       .  S
C1468      C1469   1.407       .  A
C1469      C2149   1.484       .  S
C1469      C1470   1.411       .  A
C1470      H1473   1.083       .  S
C1474      C2125   1.489       .  S
C1474      C1475   1.406       .  A
C1474      C1479   1.411       .  A
C1475      H1480   1.085       .  S
C1475      C1476   1.390       .  A
C1476      C1477   1.392       .  A
C1477      H1481   1.085       .  S
C1477      C1478   1.406       .  A
C1478      C2113   1.477       .  S
C1478      C1479   1.413       .  A
C1479      H1482   1.083       .  S
C1483      C3484   1.486       .  S
C1483      C1484   1.406       .  A
C1483      C1488   1.415       .  A
C1484      H1489   1.084       .  S
C1484      C1485   1.395       .  A
C1485      C1486   1.397   1_655  A
C1486      H1490   1.084       .  S
C1486      C1487   1.405       .  A
C1487      C2101   1.491       .  S
C1487      C1488   1.412   1_455  A
C1488      H1491   1.083       .  S
C1492      C2089   1.484       .  S
C1492      C1493   1.406       .  A
C1492      C1497   1.411       .  A
C1493      H1498   1.085       .  S
C1493      C1494   1.397       .  A
C1494      C1495   1.395       .  A
C1495      H1499   1.084       .  S
C1495      C1496   1.404       .  A
C1496      C3496   1.488       .  S
C1496      C1497   1.411       .  A
C1497      H1500   1.082       .  S
C1501      C2065   1.486       .  S
C1501      C1502   1.413       .  A
C1501      C1506   1.410       .  A
C1502      H1507   1.083       .  S
C1502      C1503   1.404       .  A
C1503      C1504   1.399       .  A
C1504      H1508   1.085       .  S
C1504      C1505   1.401       .  A
C1505      C2077   1.484       .  S
C1505      C1506   1.408       .  A
C1506      H1509   1.083       .  S
C1510      C2053   1.487       .  S
C1510      C1511   1.405       .  A
C1510      C1515   1.409       .  A
C1511      H1516   1.085       .  S
C1511      C1512   1.391       .  A
C1512      C1513   1.403       .  A
C1513      H1517   1.084       .  S
C1513      C1514   1.406       .  A
C1514      C2041   1.480       .  S
C1514      C1515   1.411       .  A
C1515      H1518   1.083       .  S
C1519      C2029   1.495       .  S
C1519      C1520   1.409       .  A
C1519      C1524   1.416   1_455  A
C1520      H1525   1.084       .  S
C1520      C1521   1.386   1_455  A
C1521      C1522   1.390       .  A
C1522      H1526   1.084       .  S
C1522      C1523   1.404       .  A
C1523      C2017   1.487       .  S
C1523      C1524   1.415       .  A
C1524      H1527   1.081       .  S
C1528      C2005   1.482       .  S
C1528      C1529   1.404       .  A
C1528      C1533   1.411       .  A
C1529      H1534   1.084       .  S
C1529      C1530   1.394       .  A
C1530      C1531   1.394       .  A
C1531      H1535   1.085       .  S
C1531      C1532   1.406       .  A
C1532      C1993   1.482       .  S
C1532      C1533   1.411       .  A
C1533      H1536   1.083       .  S
C1537      C1981   1.493       .  S
C1537      C1538   1.406       .  A
C1537      C1542   1.414       .  A
C1538      H1543   1.085       .  S
C1538      C1539   1.389       .  A
C1539      C1540   1.385       .  A
C1540      H1544   1.085       .  S
C1540      C1541   1.404       .  A
C1541      C1972   1.477       .  S
C1541      C1542   1.414       .  A
C1542      H1545   1.082       .  S
C1546      C3868   1.479       .  S
C1546      C1547   1.402       .  A
C1546      C1551   1.408       .  A
C1547      H1552   1.085       .  S
C1547      C1548   1.394   1_565  A
C1548      C1549   1.398       .  A
C1549      H1553   1.084       .  S
C1549      C1550   1.414       .  A
C1550      C1957   1.486       .  S
C1550      C1551   1.409   1_545  A
C1551      H1554   1.083       .  S
C1555      C3880   1.482       .  S
C1555      C1556   1.406       .  A
C1555      C1560   1.412       .  A
C1556      H1561   1.085       .  S
C1556      C1557   1.390       .  A
C1557      C1558   1.393       .  A
C1558      H1562   1.085       .  S
C1558      C1559   1.404       .  A
C1559      C1945   1.485       .  S
C1559      C1560   1.411       .  A
C1560      H1563   1.081       .  S
C1564      C1921   1.480       .  S
C1564      C1565   1.402       .  A
C1564      C1569   1.414       .  A
C1565      H1570   1.085       .  S
C1565      C1566   1.390   1_565  A
C1566      C1567   1.396       .  A
C1567      H1571   1.085       .  S
C1567      C1568   1.406       .  A
C1568      C1936   1.492       .  S
C1568      C1569   1.413   1_545  A
C1569      H1572   1.081       .  S
C1573      C1897   1.489       .  S
C1573      C1574   1.405       .  A
C1573      C1578   1.411       .  A
C1574      H1579   1.085       .  S
C1574      C1575   1.398       .  A
C1575      C1576   1.398       .  A
C1576      H1580   1.084       .  S
C1576      C1577   1.409       .  A
C1577      C1909   1.491       .  S
C1577      C1578   1.413       .  A
C1578      H1581   1.082       .  S
C1582      C1885   1.482       .  S
C1582      C1583   1.410       .  A
C1582      C1587   1.423       .  A
C1583      H1588   1.084       .  S
C1583      C1584   1.392       .  A
C1584      C1585   1.381       .  A
C1585      H1589   1.085       .  S
C1585      C1586   1.399       .  A
C1586      C1873   1.498       .  S
C1586      C1587   1.416       .  A
C1587      H1590   1.082       .  S
C1591      C1849   1.492       .  S
C1591      C1592   1.410       .  A
C1591      C1596   1.414   1_455  A
C1592      H1597   1.084       .  S
C1592      C1593   1.399   1_455  A
C1593      C1594   1.391       .  A
C1594      H1598   1.085       .  S
C1594      C1595   1.405       .  A
C1595      C1861   1.485       .  S
C1595      C1596   1.411       .  A
C1596      H1599   1.082       .  S
C1600      C1837   1.475       .  S
C1600      C1601   1.404       .  A
C1600      C1605   1.400       .  A
C1601      H1606   1.084       .  S
C1601      C1602   1.406   1_545  A
C1602      C1603   1.405       .  A
C1603      H1607   1.083       .  S
C1603      C1604   1.411       .  A
C1604      C1825   1.477       .  S
C1604      C1605   1.401   1_565  A
C1605      H1608   1.084       .  S
C1609      C1816   1.479       .  S
C1609      C1610   1.404       .  A
C1609      C1614   1.413   1_565  A
C1610      H1615   1.085       .  S
C1610      C1611   1.393       .  A
C1611      C1612   1.395   1_565  A
C1612      H1616   1.084       .  S
C1612      C1613   1.409       .  A
C1613      C1804   1.502       .  S
C1613      C1614   1.414       .  A
C1614      H1617   1.079       .  S
C1618      C1777   1.492       .  S
C1618      C1619   1.406       .  A
C1618      C1623   1.412       .  A
C1619      H1624   1.084       .  S
C1619      C1620   1.397       .  A
C1620      C1621   1.395       .  A
C1621      H1625   1.085       .  S
C1621      C1622   1.404       .  A
C1622      C1792   1.479       .  S
C1622      C1623   1.412       .  A
C1623      H1626   1.083       .  S
C1627      C1765   1.476       .  S
C1627      C1628   1.407       .  A
C1627      C1632   1.408   1_455  A
C1628      H1633   1.084       .  S
C1628      C1629   1.399   1_455  A
C1629      C1630   1.398       .  A
C1630      H1634   1.085       .  S
C1630      C1631   1.406       .  A
C1631      C1753   1.484       .  S
C1631      C1632   1.406       .  A
C1632      H1635   1.083       .  S
C1636      C1741   1.496       .  S
C1636      C1637   1.414       .  A
C1636      C1641   1.414       .  A
C1637      H1642   1.084       .  S
C1637      C1638   1.393       .  A
C1638      C1639   1.388       .  A
C1639      H1643   1.085       .  S
C1639      C1640   1.402       .  A
C1640      C1729   1.476       .  S
C1640      C1641   1.408       .  A
C1641      H1644   1.081       .  S
C1645      C1646   1.366       .  D
C1645      C2116   1.506       .  S
C1645      C2152   1.494       .  S
C1646      C1768   1.504       .  S
C1646      C1801   1.495       .  S
C1647      C1648   1.371       .  D
C1647      C1912   1.502       .  S
C1647      C1948   1.496       .  S
C1648      C1789   1.506       .  S
C1648      C1852   1.500       .  S
C1649      C1650   1.372       .  D
C1649      C2008   1.488       .  S
C1649      C2092   1.512       .  S
C1650      C1744   1.492       .  S
C1650      C1840   1.512       .  S
C1651      C1652   1.374       .  D
C1651      C2032   1.502       .  S
C1651      C2044   1.514       .  S
C1652      C1933   1.510       .  S
C1652      C1969   1.499       .  S
C1653      C1654   1.380       .  D
C1653      C2188   1.504       .  S
C1653      C2212   1.505       .  S
C1654      C1876   1.531       .  S
C1654      C1960   1.519       .  S
C1655      C1656   1.378       .  D
C1655      C2569   1.523       .  S
C1655      C2608   1.517       .  S
C1656      C1888   1.506       .  S
C1656      C1984   1.504       .  S
C1657      C1658   1.380       .  D
C1657      C3076   1.498       .  S
C1657      C3100   1.507       .  S
C1658      C2056   1.523       .  S
C1658      C2068   1.515       .  S
C1659      C1660   1.372       .  D
C1659      C2173   1.502       .  S
C1659      C2236   1.508       .  S
C1660      C2080   1.502       .  S
C1660      C2104   1.496       .  S
C1661      C1662   1.376       .  D
C1661      C2812   1.507       .  S
C1661      C2848   1.501       .  S
C1662      C2164   1.508       .  S
C1662      C2224   1.514       .  S
C1663      C1664   1.375       .  D
C1663      C2332   1.501       .  S
C1663      C2356   1.502       .  S
C1664      C2128   1.497       .  S
C1664      C2200   1.506       .  S
C1665      C1666   1.377       .  D
C1665      C2956   1.494       .  S
C1665      C2992   1.507       .  S
C1666      C2140   1.525       .  S
C1666      C2248   1.515       .  S
C1667      C1668   1.373       .  D
C1667      C2404   1.515       .  S
C1667      C2440   1.503       .  S
C1668      C2308   1.493       .  S
C1668      C2344   1.507       .  S
C1669      C1670   1.369       .  D
C1669      C2560   1.503       .  S
C1669      C2596   1.495       .  S
C1670      C2269   1.512       .  S
C1670      C2368   1.496       .  S
C1671      C1672   1.371       .  D
C1671      C2680   1.501       .  S
C1671      C2776   1.505       .  S
C1672      C2284   1.501       .  S
C1672      C2389   1.511       .  S
C1673      C1674   1.379       .  D
C1673      C2860   1.527       .  S
C1673      C2896   1.518       .  S
C1674      C2320   1.494       .  S
C1674      C2380   1.497       .  S
C1675      C1676   1.375       .  D
C1675      C3004   1.495       .  S
C1675      C3028   1.513       .  S
C1676      C2260   1.493       .  S
C1676      C2296   1.518       .  S
C1677      C1678   1.380       .  D
C1677      C2728   1.524       .  S
C1677      C2740   1.513       .  S
C1678      C2485   1.509       .  S
C1678      C2512   1.522       .  S
C1679      C1680   1.374       .  D
C1679      C2704   1.505       .  S
C1679      C2761   1.508       .  S
C1680      C2584   1.503       .  S
C1680      C2641   1.512       .  S
C1681      C1682   1.378       .  D
C1681      C2536   1.515       .  S
C1681      C2629   1.524       .  S
C1682      C2428   1.497       .  S
C1682      C2452   1.508       .  S
C1683      C1684   1.383       .  D
C1683      C3124   1.508       .  S
C1683      C3160   1.507       .  S
C1684      C2665   1.513       .  S
C1684      C2749   1.510       .  S
C1685      C1686   1.374       .  D
C1685      C2944   1.502       .  S
C1685      C3064   1.499       .  S
C1686      C2788   1.509       .  S
C1686      C2920   1.505       .  S
C1687      C1688   1.377       .  D
C1687      C3112   1.510       .  S
C1687      C3148   1.502       .  S
C1688      C2980   1.510       .  S
C1688      C3040   1.502       .  S
C1689      C1690   1.372       .  D
C1689      C3376   1.508       .  S
C1689      C3409   1.500       .  S
C1690      C3088   1.511       .  S
C1690      C3196   1.504       .  S
C1691      C1692   1.382       .  D
C1691      C3241   1.495       .  S
C1691      C3292   1.510       .  S
C1692      C3136   1.546       .  S
C1692      C3184   1.510       .  S
C1693      C1694   1.374       .  D
C1693      C3400   1.513       .  S
C1693      C3433   1.507       .  S
C1694      C3280   1.503       .  S
C1694      C3316   1.501       .  S
C1695      C1696   1.372       .  D
C1695      C3220   1.510       .  S
C1695      C3256   1.494       .  S
C1696      C2932   1.489       .  S
C1696      C2968   1.510       .  S
C1697      C1698   1.370       .  D
C1697      C3232   1.509       .  S
C1697      C3268   1.505       .  S
C1698      C1780   1.500       .  S
C1698      C1813   1.507       .  S
C1699      C1700   1.376       .  D
C1699      C3352   1.504       .  S
C1699      C3448   1.505       .  S
C1700      C2524   1.509       .  S
C1700      C2545   1.511       .  S
C1701      C1702   1.365       .  D
C1701      C2416   1.495       .  S
C1701      C2500   1.500       .  S
C1702      C1732   1.507       .  S
C1702      C1756   1.498       .  S
C1703      C1704   1.379       .  D
C1703      C3016   1.495       .  S
C1703      C3052   1.497       .  S
C1704      C3340   1.520       .  S
C1704      C3424   1.529       .  S
C1705      C1706   1.376       .  D
C1705      C3301   1.506       .  S
C1705      C3328   1.509       .  S
C1706      C2464   1.509       .  S
C1706      C2476   1.503       .  S
C1707      C1708   1.377       .  D
C1707      C3772   1.504       .  S
C1707      C3808   1.498       .  S
C1708      C1828   1.509       .  S
C1708      C1864   1.527       .  S
C1709      C1710   1.380       .  D
C1709      C3601   1.502       .  S
C1709      C3628   1.497       .  S
C1710      C3172   1.508       .  S
C1710      C3208   1.534       .  S
C1711      C1712   1.386       .  D
C1711      C3985   1.499       .  S
C1711      C4024   1.539       .  S
C1712      C2620   1.499       .  S
C1712      C2656   1.548       .  S
C1713      C1714   1.381       .  D
C1713      C3904   1.511       .  S
C1713      C3940   1.536       .  S
C1714      C2824   1.503       .  S
C1714      C2908   1.505       .  S
C1715      C1716   1.374       .  D
C1715      C2692   1.501       .  S
C1715      C2716   1.510       .  S
C1716      C1996   1.509       .  S
C1716      C2020   1.494       .  S
C1717      C1718   1.366       .  D
C1717      C3700   1.501       .  S
C1717      C3736   1.499       .  S
C1718      C2800   1.503       .  S
C1718      C2872   1.500       .  S
C1719      C1720   1.371       .  D
C1719      C3976   1.508       .  S
C1719      C4012   1.503       .  S
C1720      C3592   1.500       .  S
C1720      C3616   1.501       .  S
C1721      C1722   1.371       .  D
C1721      C3928   1.508       .  S
C1721      C4000   1.498       .  S
C1722      C3784   1.515       .  S
C1722      C3832   1.500       .  S
C1723      C1724   1.371       .  D
C1723      C3517   1.512       .  S
C1723      C3556   1.493       .  S
C1724      C2836   1.510       .  S
C1724      C2884   1.491       .  S
C1725      C1726   1.369       .  D
C1725      C3364   1.504       .  S
C1725      C3388   1.506       .  S
C1726      C1900   1.499       .  S
C1726      C1924   1.502       .  S
C1727      C1728   1.375       .  D
C1727      C3760   1.515       .  S
C1727      C3796   1.500       .  S
C1728      C3544   1.497       .  S
C1728      C3640   1.508       .  S
C1729      C1730   1.398       .  A
C1729      C1734   1.408       .  A
C1730      H1739   1.084       .  S
C1730      C1731   1.394       .  A
C1731      C1732   1.419       .  A
C1731      S1735   1.794       .  S
C1732      C1733   1.412       .  A
C1733      H1740   1.080       .  S
C1733      C1734   1.402       .  A
C1734      S1736   1.801       .  S
S1735      H1738   1.407       .  S
S1736      H1737   1.405       .  S
C1741      C1742   1.404       .  A
C1741      C1746   1.416       .  A
C1742      H1751   1.084       .  S
C1742      C1743   1.385       .  A
C1743      C1744   1.417       .  A
C1743      S1747   1.810       .  S
C1744      C1745   1.408       .  A
C1745      H1752   1.083       .  S
C1745      C1746   1.412       .  A
C1746      S1748   1.802       .  S
S1747      H1750   1.397       .  S
S1748      H1749   1.407       .  S
C1753      C1754   1.401       .  A
C1753      C1758   1.412       .  A
C1754      H1763   1.083       .  S
C1754      C1755   1.395       .  A
C1755      C1756   1.414       .  A
C1755      S1759   1.800       .  S
C1756      C1757   1.409       .  A
C1757      H1764   1.082       .  S
C1757      C1758   1.406       .  A
C1758      S1760   1.801       .  S
S1759      H1762   1.407       .  S
S1760      H1761   1.405       .  S
C1765      C1766   1.400       .  A
C1765      C1770   1.410       .  A
C1766      H1775   1.084       .  S
C1766      C1767   1.400       .  A
C1767      C1768   1.416       .  A
C1767      S1771   1.800       .  S
C1768      C1769   1.406       .  A
C1769      H1776   1.077       .  S
C1769      C1770   1.398       .  A
C1770      S1772   1.803       .  S
S1771      H1774   1.407       .  S
S1772      H1773   1.407       .  S
C1777      C1778   1.404       .  A
C1777      C1782   1.416       .  A
C1778      H1787   1.085       .  S
C1778      C1779   1.391       .  A
C1779      C1780   1.411       .  A
C1779      S1783   1.794       .  S
C1780      C1781   1.408       .  A
C1781      H1788   1.083       .  S
C1781      C1782   1.410       .  A
C1782      S1784   1.800       .  S
S1783      H1786   1.405       .  S
S1784      H1785   1.406       .  S
C1789      C1790   1.406       .  A
C1789      C1794   1.419       .  A
C1790      H1799   1.076       .  S
C1790      C1791   1.396       .  A
C1791      C1792   1.409       .  A
C1791      S1795   1.804       .  S
C1792      C1793   1.401       .  A
C1793      H1800   1.084       .  S
C1793      C1794   1.404       .  A
C1794      S1796   1.801       .  S
S1795      H1798   1.407       .  S
S1796      H1797   1.403       .  S
C1801      C1802   1.408       .  A
C1801      C1806   1.415       .  A
C1802      H1811   1.082       .  S
C1802      C1803   1.414       .  A
C1803      C1804   1.417       .  A
C1803      S1807   1.804       .  S
C1804      C1805   1.406       .  A
C1805      H1812   1.084       .  S
C1805      C1806   1.386       .  A
C1806      S1808   1.808       .  S
S1807      H1810   1.407       .  S
S1808      H1809   1.396       .  S
C1813      C1814   1.410       .  A
C1813      C1818   1.425       .  A
C1814      H1823   1.082       .  S
C1814      C1815   1.397       .  A
C1815      C1816   1.406       .  A
C1815      S1819   1.799       .  S
C1816      C1817   1.402       .  A
C1817      H1824   1.085       .  S
C1817      C1818   1.400       .  A
C1818      S1820   1.802       .  S
S1819      H1822   1.403       .  S
S1820      H1821   1.382       .  S
C1825      C1826   1.402       .  A
C1825      C1830   1.409       .  A
C1826      H1835   1.084       .  S
C1826      C1827   1.403       .  A
C1827      C1828   1.415       .  A
C1827      S1831   1.799       .  S
C1828      C1829   1.408       .  A
C1829      H1836   1.074       .  S
C1829      C1830   1.396       .  A
C1830      S1832   1.804       .  S
S1831      H1834   1.407       .  S
S1832      H1833   1.406       .  S
C1837      C1838   1.397       .  A
C1837      C1842   1.404       .  A
C1838      H1847   1.084       .  S
C1838      C1839   1.397       .  A
C1839      C1840   1.422       .  A
C1839      S1843   1.801       .  S
C1840      C1841   1.411       .  A
C1841      H1848   1.074       .  S
C1841      C1842   1.403       .  A
C1842      S1844   1.806       .  S
S1843      H1846   1.397       .  S
S1844      H1845   1.407       .  S
C1849      C1850   1.404       .  A
C1849      C1854   1.412       .  A
C1850      H1859   1.083       .  S
C1850      C1851   1.399       .  A
C1851      C1852   1.415       .  A
C1851      S1855   1.808       .  S
C1852      C1853   1.406       .  A
C1853      H1860   1.081       .  S
C1853      C1854   1.406       .  A
C1854      S1856   1.797       .  S
S1855      H1858   1.406       .  S
S1856      H1857   1.403       .  S
C1861      C1862   1.405       .  A
C1861      C1866   1.406       .  A
C1862      H1871   1.083       .  S
C1862      C1863   1.415       .  A
C1863      C1864   1.427       .  A
C1863      S1867   1.799       .  S
C1864      C1865   1.412       .  A
C1865      H1872   1.077       .  S
C1865      C1866   1.381       .  A
C1866      S1868   1.808       .  S
S1867      H1870   1.404       .  S
S1868      H1869   1.407       .  S
C1873      C1874   1.409       .  A
C1873      C1878   1.408       .  A
C1874      H1883   1.082       .  S
C1874      C1875   1.426       .  A
C1875      C1876   1.430       .  A
C1875      S1879   1.801       .  S
C1876      C1877   1.410       .  A
C1877      H1884   1.077       .  S
C1877      C1878   1.374       .  A
C1878      S1880   1.812       .  S
S1879      H1882   1.407       .  S
S1880      H1881   1.407       .  S
C1885      C1886   1.406       .  A
C1885      C1890   1.407       .  A
C1886      H1895   1.084       .  S
C1886      C1887   1.410       .  A
C1887      C1888   1.425       .  A
C1887      S1891   1.809       .  S
C1888      C1889   1.409       .  A
C1889      H1896   1.084       .  S
C1889      C1890   1.394       .  A
C1890      S1892   1.802       .  S
S1891      H1894   1.398       .  S
S1892      H1893   1.405       .  S
C1897      C1898   1.402       .  A
C1897      C1902   1.413       .  A
C1898      H1907   1.085       .  S
C1898      C1899   1.396       .  A
C1899      C1900   1.416       .  A
C1899      S1903   1.802       .  S
C1900      C1901   1.407       .  A
C1901      H1908   1.083       .  S
C1901      C1902   1.407       .  A
C1902      S1904   1.798       .  S
S1903      H1906   1.396       .  S
S1904      H1905   1.402       .  S
C1909      C1910   1.404       .  A
C1909      C1914   1.415       .  A
C1910      H1919   1.083       .  S
C1910      C1911   1.406       .  A
C1911      C1912   1.415       .  A
C1911      S1915   1.797       .  S
C1912      C1913   1.403       .  A
C1913      H1920   1.076       .  S
C1913      C1914   1.397       .  A
C1914      S1916   1.805       .  S
S1915      H1918   1.406       .  S
S1916      H1917   1.407       .  S
C1921      C1922   1.405       .  A
C1921      C1926   1.407       .  A
C1922      H1931   1.083       .  S
C1922      C1923   1.404       .  A
C1923      C1924   1.417       .  A
C1923      S1927   1.804       .  S
C1924      C1925   1.408       .  A
C1925      H1932   1.081       .  S
C1925      C1926   1.397       .  A
C1926      S1928   1.799       .  S
S1927      H1930   1.407       .  S
S1928      H1929   1.404       .  S
C1933      C1934   1.409       .  A
C1933      C1938   1.417       .  A
C1934      H1943   1.080       .  S
C1934      C1935   1.409       .  A
C1935      C1936   1.414       .  A
C1935      S1939   1.802       .  S
C1936      C1937   1.401       .  A
C1937      H1944   1.084       .  S
C1937      C1938   1.398       .  A
C1938      S1940   1.794       .  S
S1939      H1942   1.398       .  S
S1940      H1941   1.407       .  S
C1945      C1946   1.404       .  A
C1945      C1950   1.414       .  A
C1946      H1955   1.083       .  S
C1946      C1947   1.406       .  A
C1947      C1948   1.415       .  A
C1947      S1951   1.792       .  S
C1948      C1949   1.402       .  A
C1949      H1956   1.083       .  S
C1949      C1950   1.390       .  A
C1950      S1952   1.806       .  S
S1951      H1954   1.402       .  S
S1952      H1953   1.407       .  S
C1957      C1958   1.397       .  A
C1957      C1962   1.413       .  A
C1958      H1967   1.084       .  S
C1958      C1959   1.397       .  A
C1959      C1960   1.422       .  A
C1959      S1963   1.796       .  S
C1960      C1961   1.412       .  A
C1961      H1968   1.084       .  S
C1961      C1962   1.408       .  A
C1962      S1964   1.801       .  S
S1963      H1966   1.407       .  S
S1964      H1965   1.406       .  S
C1969      C1970   1.400       .  A
C1969      C1974   1.418       .  A
C1970      H1979   1.072       .  S
C1970      C1971   1.386       .  A
C1971      C1972   1.410       .  A
C1971      S1975   1.807       .  S
C1972      C1973   1.401       .  A
C1973      H1980   1.083       .  S
C1973      C1974   1.406       .  A
C1974      S1976   1.792       .  S
S1975      H1978   1.407       .  S
S1976      H1977   1.404       .  S
C1981      C1982   1.404       .  A
C1981      C1986   1.413       .  A
C1982      H1991   1.085       .  S
C1982      C1983   1.385       .  A
C1983      C1984   1.418       .  A
C1983      S1987   1.807       .  S
C1984      C1985   1.413       .  A
C1985      H1992   1.084       .  S
C1985      C1986   1.410       .  A
C1986      S1988   1.800       .  S
S1987      H1990   1.385       .  S
S1988      H1989   1.406       .  S
C1993      C1994   1.399       .  A
C1993      C1998   1.409       .  A
C1994      H2003   1.084       .  S
C1994      C1995   1.398       .  A
C1995      C1996   1.421       .  A
C1995      S1999   1.796       .  S
C1996      C1997   1.412       .  A
C1997      H2004   1.080       .  S
C1997      C1998   1.403       .  A
C1998      S2000   1.802       .  S
S1999      H2002   1.407       .  S
S2000      H2001   1.406       .  S
C2005      C2006   1.402       .  A
C2005      C2010   1.413       .  A
C2006      H2015   1.084       .  S
C2006      C2007   1.405       .  A
C2007      C2008   1.418       .  A
C2007      S2011   1.804       .  S
C2008      C2009   1.400       .  A
C2009      H2016   1.083       .  S
C2009      C2010   1.393       .  A
C2010      S2012   1.810       .  S
S2011      H2014   1.396       .  S
S2012      H2013   1.407       .  S
C2017      C2018   1.403       .  A
C2017      C2022   1.415       .  A
C2018      H2027   1.083       .  S
C2018      C2019   1.410       .  A
C2019      C2020   1.421       .  A
C2019      S2023   1.800       .  S
C2020      C2021   1.396       .  A
C2021      H2028   1.080       .  S
C2021      C2022   1.387       .  A
C2022      S2024   1.808       .  S
S2023      H2026   1.397       .  S
S2024      H2025   1.407       .  S
C2029      C2030   1.402       .  A
C2029      C2034   1.414       .  A
C2030      H2039   1.085       .  S
C2030      C2031   1.388       .  A
C2031      C2032   1.420       .  A
C2031      S2035   1.803       .  S
C2032      C2033   1.411       .  A
C2033      H2040   1.078       .  S
C2033      C2034   1.409       .  A
C2034      S2036   1.798       .  S
S2035      H2038   1.373       .  S
S2036      H2037   1.407       .  S
C2041      C2042   1.400       .  A
C2041      C2046   1.407       .  A
C2042      H2051   1.084       .  S
C2042      C2043   1.405       .  A
C2043      C2044   1.422       .  A
C2043      S2047   1.801       .  S
C2044      C2045   1.410       .  A
C2045      H2052   1.070       .  S
C2045      C2046   1.398       .  A
C2046      S2048   1.805       .  S
S2047      H2050   1.402       .  S
S2048      H2049   1.404       .  S
C2053      C2054   1.405       .  A
C2053      C2058   1.406       .  A
C2054      H2063   1.082       .  S
C2054      C2055   1.419       .  A
C2055      C2056   1.426       .  A
C2055      S2059   1.801       .  S
C2056      C2057   1.410       .  A
C2057      H2064   1.077       .  S
C2057      C2058   1.376       .  A
C2058      S2060   1.808       .  S
S2059      H2062   1.406       .  S
S2060      H2061   1.407       .  S
C2065      C2066   1.401       .  A
C2065      C2070   1.410       .  A
C2066      H2075   1.084       .  S
C2066      C2067   1.406       .  A
C2067      C2068   1.421       .  A
C2067      S2071   1.806       .  S
C2068      C2069   1.412       .  A
C2069      H2076   1.076       .  S
C2069      C2070   1.401       .  A
C2070      S2072   1.804       .  S
S2071      H2074   1.402       .  S
S2072      H2073   1.406       .  S
C2077      C2078   1.401       .  A
C2077      C2082   1.412       .  A
C2078      H2087   1.083       .  S
C2078      C2079   1.400       .  A
C2079      C2080   1.415       .  A
C2079      S2083   1.798       .  S
C2080      C2081   1.408       .  A
C2081      H2088   1.082       .  S
C2081      C2082   1.404       .  A
C2082      S2084   1.802       .  S
S2083      H2086   1.407       .  S
S2084      H2085   1.406       .  S
C2089      C2090   1.399       .  A
C2089      C2094   1.409       .  A
C2090      H2099   1.084       .  S
C2090      C2091   1.401       .  A
C2091      C2092   1.420       .  A
C2091      S2095   1.794       .  S
C2092      C2093   1.411       .  A
C2093      H2100   1.079       .  S
C2093      C2094   1.402       .  A
C2094      S2096   1.800       .  S
S2095      H2098   1.407       .  S
S2096      H2097   1.402       .  S
C2101      C2102   1.405       .  A
C2101      C2106   1.413       .  A
C2102      H2111   1.083       .  S
C2102      C2103   1.412       .  A
C2103      C2104   1.421       .  A
C2103      S2107   1.805       .  S
C2104      C2105   1.401       .  A
C2105      H2112   1.080       .  S
C2105      C2106   1.390       .  A
C2106      S2108   1.807       .  S
S2107      H2110   1.399       .  S
S2108      H2109   1.407       .  S
C2113      C2114   1.399       .  A
C2113      C2118   1.408       .  A
C2114      H2123   1.084       .  S
C2114      C2115   1.399       .  A
C2115      C2116   1.419       .  A
C2115      S2119   1.797       .  S
C2116      C2117   1.411       .  A
C2117      H2124   1.082       .  S
C2117      C2118   1.402       .  A
C2118      S2120   1.802       .  S
S2119      H2122   1.407       .  S
S2120      H2121   1.405       .  S
C2125      C2126   1.406       .  A
C2125      C2130   1.411       .  A
C2126      H2135   1.083       .  S
C2126      C2127   1.413       .  A
C2127      C2128   1.422       .  A
C2127      S2131   1.804       .  S
C2128      C2129   1.401       .  A
C2129      H2136   1.080       .  S
C2129      C2130   1.383       .  A
C2130      S2132   1.809       .  S
S2131      H2134   1.398       .  S
S2132      H2133   1.408       .  S
C2137      C2138   1.404       .  A
C2137      C2142   1.403       .  A
C2138      H2147   1.083       .  S
C2138      C2139   1.414       .  A
C2139      C2140   1.428       .  A
C2139      S2143   1.797       .  S
C2140      C2141   1.413       .  A
C2141      H2148   1.076       .  S
C2141      C2142   1.380       .  A
C2142      S2144   1.805       .  S
S2143      H2146   1.402       .  S
S2144      H2145   1.407       .  S
C2149      C2150   1.404       .  A
C2149      C2154   1.412       .  A
C2150      H2159   1.083       .  S
C2150      C2151   1.398       .  A
C2151      C2152   1.411       .  A
C2151      S2155   1.805       .  S
C2152      C2153   1.405       .  A
C2153      H2160   1.083       .  S
C2153      C2154   1.404       .  A
C2154      S2156   1.800       .  S
S2155      H2158   1.406       .  S
S2156      H2157   1.401       .  S
C2161      C2162   1.403       .  A
C2161      C2166   1.412       .  A
C2162      H2171   1.085       .  S
C2162      C2163   1.390       .  A
C2163      C2164   1.420       .  A
C2163      S2167   1.804       .  S
C2164      C2165   1.413       .  A
C2165      H2172   1.079       .  S
C2165      C2166   1.408       .  A
C2166      S2168   1.799       .  S
S2167      H2170   1.380       .  S
S2168      H2169   1.406       .  S
C2173      C2174   1.412       .  A
C2173      C2178   1.415       .  A
C2174      H2183   1.084       .  S
C2174      C2175   1.411       .  A
C2175      C2176   1.413       .  A
C2175      S2179   1.800       .  S
C2176      C2177   1.404       .  A
C2177      H2184   1.083       .  S
C2177      C2178   1.393       .  A
C2178      S2180   1.805       .  S
S2179      H2182   1.405       .  S
S2180      H2181   1.406       .  S
C2185      C2186   1.402       .  A
C2185      C2190   1.409       .  A
C2186      H2195   1.085       .  S
C2186      C2187   1.387       .  A
C2187      C2188   1.420       .  A
C2187      S2191   1.807       .  S
C2188      C2189   1.412       .  A
C2189      H2196   1.084       .  S
C2189      C2190   1.407       .  A
C2190      S2192   1.795       .  S
S2191      H2194   1.385       .  S
S2192      H2193   1.406       .  S
C2197      C2198   1.400       .  A
C2197      C2202   1.409       .  A
C2198      H2207   1.084       .  S
C2198      C2199   1.403       .  A
C2199      C2200   1.421       .  A
C2199      S2203   1.798       .  S
C2200      C2201   1.406       .  A
C2201      H2208   1.074       .  S
C2201      C2202   1.393       .  A
C2202      S2204   1.805       .  S
S2203      H2206   1.398       .  S
S2204      H2205   1.407       .  S
C2209      C2210   1.406       .  A
C2209      C2214   1.406       .  A
C2210      H2219   1.084       .  S
C2210      C2211   1.409       .  A
C2211      C2212   1.423       .  A
C2211      S2215   1.808       .  S
C2212      C2213   1.411       .  A
C2213      H2220   1.084       .  S
C2213      C2214   1.394       .  A
C2214      S2216   1.802       .  S
S2215      H2218   1.397       .  S
S2216      H2217   1.403       .  S
C2221      C2222   1.400       .  A
C2221      C2226   1.409       .  A
C2222      H2231   1.083       .  S
C2222      C2223   1.404       .  A
C2223      C2224   1.421       .  A
C2223      S2227   1.800       .  S
C2224      C2225   1.411       .  A
C2225      H2232   1.080       .  S
C2225      C2226   1.403       .  A
C2226      S2228   1.806       .  S
S2227      H2230   1.406       .  S
S2228      H2229   1.401       .  S
C2233      C2234   1.399       .  A
C2233      C2238   1.409       .  A
C2234      H2243   1.084       .  S
C2234      C2235   1.401       .  A
C2235      C2236   1.424       .  A
C2235      S2239   1.798       .  S
C2236      C2237   1.411       .  A
C2237      H2244   1.083       .  S
C2237      C2238   1.401       .  A
C2238      S2240   1.804       .  S
S2239      H2242   1.390       .  S
S2240      H2241   1.405       .  S
C2245      C2246   1.402       .  A
C2245      C2250   1.411       .  A
C2246      H2255   1.084       .  S
C2246      C2247   1.405       .  A
C2247      C2248   1.415       .  A
C2247      S2251   1.798       .  S
C2248      C2249   1.410       .  A
C2249      H2256   1.075       .  S
C2249      C2250   1.400       .  A
C2250      S2252   1.804       .  S
S2251      H2254   1.407       .  S
S2252      H2253   1.406       .  S
C2257      C2258   1.405       .  A
C2257      C2262   1.414       .  A
C2258      H2267   1.083       .  S
C2258      C2259   1.411       .  A
C2259      C2260   1.420       .  A
C2259      S2263   1.803       .  S
C2260      C2261   1.401       .  A
C2261      H2268   1.083       .  S
C2261      C2262   1.388       .  A
C2262      S2264   1.808       .  S
S2263      H2266   1.397       .  S
S2264      H2265   1.407       .  S
C2269      C2270   1.412       .  A
C2269      C2274   1.422       .  A
C2270      H2279   1.081       .  S
C2270      C2271   1.401       .  A
C2271      C2272   1.408       .  A
C2271      S2275   1.801       .  S
C2272      C2273   1.400       .  A
C2273      H2280   1.084       .  S
C2273      C2274   1.402       .  A
C2274      S2276   1.796       .  S
S2275      H2278   1.402       .  S
S2276      H2277   1.407       .  S
C2281      C2282   1.405       .  A
C2281      C2286   1.413       .  A
C2282      H2291   1.083       .  S
C2282      C2283   1.396       .  A
C2283      C2284   1.411       .  A
C2283      S2287   1.805       .  S
C2284      C2285   1.409       .  A
C2285      H2292   1.083       .  S
C2285      C2286   1.409       .  A
C2286      S2288   1.801       .  S
S2287      H2290   1.406       .  S
S2288      H2289   1.405       .  S
C2293      C2294   1.400       .  A
C2293      C2298   1.411       .  A
C2294      H2303   1.084       .  S
C2294      C2295   1.407       .  A
C2295      C2296   1.420       .  A
C2295      S2299   1.793       .  S
C2296      C2297   1.406       .  A
C2297      H2304   1.069       .  S
C2297      C2298   1.395       .  A
C2298      S2300   1.806       .  S
S2299      H2302   1.407       .  S
S2300      H2301   1.407       .  S
C2305      C2306   1.404       .  A
C2305      C2310   1.412       .  A
C2306      H2315   1.083       .  S
C2306      C2307   1.410       .  A
C2307      C2308   1.419       .  A
C2307      S2311   1.800       .  S
C2308      C2309   1.402       .  A
C2309      H2316   1.082       .  S
C2309      C2310   1.387       .  A
C2310      S2312   1.807       .  S
S2311      H2314   1.398       .  S
S2312      H2313   1.407       .  S
C2317      C2318   1.407       .  A
C2317      C2322   1.413       .  A
C2318      H2327   1.082       .  S
C2318      C2319   1.412       .  A
C2319      C2320   1.414       .  A
C2319      S2323   1.802       .  S
C2320      C2321   1.398       .  A
C2321      H2328   1.081       .  S
C2321      C2322   1.384       .  A
C2322      S2324   1.808       .  S
S2323      H2326   1.407       .  S
S2324      H2325   1.407       .  S
C2329      C2330   1.403       .  A
C2329      C2334   1.411       .  A
C2330      H2339   1.083       .  S
C2330      C2331   1.407       .  A
C2331      C2332   1.415       .  A
C2331      S2335   1.792       .  S
C2332      C2333   1.403       .  A
C2333      H2340   1.076       .  S
C2333      C2334   1.389       .  A
C2334      S2336   1.807       .  S
S2335      H2338   1.404       .  S
S2336      H2337   1.407       .  S
C2341      C2342   1.404       .  A
C2341      C2346   1.409       .  A
C2342      H2351   1.084       .  S
C2342      C2343   1.408       .  A
C2343      C2344   1.417       .  A
C2343      S2347   1.795       .  S
C2344      C2345   1.402       .  A
C2345      H2352   1.064       .  S
C2345      C2346   1.388       .  A
C2346      S2348   1.807       .  S
S2347      H2350   1.405       .  S
S2348      H2349   1.407       .  S
C2353      C2354   1.401       .  A
C2353      C2358   1.410       .  A
C2354      H2363   1.085       .  S
C2354      C2355   1.395       .  A
C2355      C2356   1.423       .  A
C2355      S2359   1.802       .  S
C2356      C2357   1.410       .  A
C2357      H2364   1.081       .  S
C2357      C2358   1.403       .  A
C2358      S2360   1.802       .  S
S2359      H2362   1.388       .  S
S2360      H2361   1.406       .  S
C2365      C2366   1.405       .  A
C2365      C2370   1.411       .  A
C2366      H2375   1.083       .  S
C2366      C2367   1.396       .  A
C2367      C2368   1.410       .  A
C2367      S2371   1.806       .  S
C2368      C2369   1.407       .  A
C2369      H2376   1.083       .  S
C2369      C2370   1.405       .  A
C2370      S2372   1.797       .  S
S2371      H2374   1.406       .  S
S2372      H2373   1.404       .  S
C2377      C2378   1.407       .  A
C2377      C2382   1.407       .  A
C2378      H2387   1.084       .  S
C2378      C2379   1.407       .  A
C2379      C2380   1.420       .  A
C2379      S2383   1.807       .  S
C2380      C2381   1.409       .  A
C2381      H2388   1.080       .  S
C2381      C2382   1.398       .  A
C2382      S2384   1.799       .  S
S2383      H2386   1.396       .  S
S2384      H2385   1.404       .  S
C2389      C2390   1.411       .  A
C2389      C2394   1.421       .  A
C2390      H2399   1.082       .  S
C2390      C2391   1.401       .  A
C2391      C2392   1.408       .  A
C2391      S2395   1.801       .  S
C2392      C2393   1.401       .  A
C2393      H2400   1.083       .  S
C2393      C2394   1.404       .  A
C2394      S2396   1.797       .  S
S2395      H2398   1.402       .  S
S2396      H2397   1.407       .  S
C2401      C2402   1.398       .  A
C2401      C2406   1.406       .  A
C2402      H2411   1.084       .  S
C2402      C2403   1.402       .  A
C2403      C2404   1.425       .  A
C2403      S2407   1.799       .  S
C2404      C2405   1.412       .  A
C2405      H2412   1.079       .  S
C2405      C2406   1.402       .  A
C2406      S2408   1.803       .  S
S2407      H2410   1.407       .  S
S2408      H2409   1.401       .  S
C2413      C2414   1.402       .  A
C2413      C2418   1.414       .  A
C2414      H2423   1.085       .  S
C2414      C2415   1.383       .  A
C2415      C2416   1.414       .  A
C2415      S2419   1.804       .  S
C2416      C2417   1.411       .  A
C2417      H2424   1.081       .  S
C2417      C2418   1.410       .  A
C2418      S2420   1.798       .  S
S2419      H2422   1.383       .  S
S2420      H2421   1.406       .  S
C2425      C2426   1.405       .  A
C2425      C2430   1.416       .  A
C2426      H2435   1.083       .  S
C2426      C2427   1.405       .  A
C2427      C2428   1.415       .  A
C2427      S2431   1.794       .  S
C2428      C2429   1.402       .  A
C2429      H2436   1.084       .  S
C2429      C2430   1.392       .  A
C2430      S2432   1.807       .  S
S2431      H2434   1.403       .  S
S2432      H2433   1.407       .  S
C2437      C2438   1.403       .  A
C2437      C2442   1.413       .  A
C2438      H2447   1.085       .  S
C2438      C2439   1.390       .  A
C2439      C2440   1.418       .  A
C2439      S2443   1.805       .  S
C2440      C2441   1.412       .  A
C2441      H2448   1.081       .  S
C2441      C2442   1.407       .  A
C2442      S2444   1.799       .  S
S2443      H2446   1.382       .  S
S2444      H2445   1.406       .  S
C2449      C2450   1.399       .  A
C2449      C2454   1.418       .  A
C2450      H2459   1.084       .  S
C2450      C2451   1.401       .  A
C2451      C2452   1.421       .  A
C2451      S2455   1.797       .  S
C2452      C2453   1.407       .  A
C2453      H2460   1.083       .  S
C2453      C2454   1.406       .  A
C2454      S2456   1.803       .  S
S2455      H2458   1.400       .  S
S2456      H2457   1.407       .  S
C2461      C2462   1.404       .  A
C2461      C2466   1.413       .  A
C2462      H2471   1.083       .  S
C2462      C2463   1.412       .  A
C2463      C2464   1.422       .  A
C2463      S2467   1.803       .  S
C2464      C2465   1.406       .  A
C2465      H2472   1.077       .  S
C2465      C2466   1.398       .  A
C2466      S2468   1.806       .  S
S2467      H2470   1.399       .  S
S2468      H2469   1.407       .  S
C2473      C2474   1.402       .  A
C2473      C2478   1.412       .  A
C2474      H2483   1.085       .  S
C2474      C2475   1.398       .  A
C2475      C2476   1.421       .  A
C2475      S2479   1.799       .  S
C2476      C2477   1.408       .  A
C2477      H2484   1.079       .  S
C2477      C2478   1.404       .  A
C2478      S2480   1.801       .  S
S2479      H2482   1.388       .  S
S2480      H2481   1.406       .  S
C2485      C2486   1.410       .  A
C2485      C2490   1.420       .  A
C2486      H2495   1.084       .  S
C2486      C2487   1.400       .  A
C2487      C2488   1.410       .  A
C2487      S2491   1.800       .  S
C2488      C2489   1.404       .  A
C2489      H2496   1.083       .  S
C2489      C2490   1.408       .  A
C2490      S2492   1.803       .  S
S2491      H2494   1.403       .  S
S2492      H2493   1.407       .  S
C2497      C2498   1.400       .  A
C2497      C2502   1.412       .  A
C2498      H2507   1.084       .  S
C2498      C2499   1.401       .  A
C2499      C2500   1.415       .  A
C2499      S2503   1.800       .  S
C2500      C2501   1.405       .  A
C2501      H2508   1.076       .  S
C2501      C2502   1.401       .  A
C2502      S2504   1.804       .  S
S2503      H2506   1.405       .  S
S2504      H2505   1.403       .  S
C2509      C2510   1.404       .  A
C2509      C2514   1.406       .  A
C2510      H2519   1.083       .  S
C2510      C2511   1.412       .  A
C2511      C2512   1.426       .  A
C2511      S2515   1.801       .  S
C2512      C2513   1.411       .  A
C2513      H2520   1.077       .  S
C2513      C2514   1.377       .  A
C2514      S2516   1.807       .  S
S2515      H2518   1.407       .  S
S2516      H2517   1.407       .  S
C2521      C2522   1.404       .  A
C2521      C2526   1.413       .  A
C2522      H2531   1.085       .  S
C2522      C2523   1.395       .  A
C2523      C2524   1.419       .  A
C2523      S2527   1.803       .  S
C2524      C2525   1.411       .  A
C2525      H2532   1.080       .  S
C2525      C2526   1.406       .  A
C2526      S2528   1.801       .  S
S2527      H2530   1.383       .  S
S2528      H2529   1.407       .  S
C2533      C2534   1.401       .  A
C2533      C2538   1.413       .  A
C2534      H2543   1.084       .  S
C2534      C2535   1.404       .  A
C2535      C2536   1.418       .  A
C2535      S2539   1.800       .  S
C2536      C2537   1.411       .  A
C2537      H2544   1.079       .  S
C2537      C2538   1.405       .  A
C2538      S2540   1.804       .  S
S2539      H2542   1.403       .  S
S2540      H2541   1.407       .  S
C2545      C2546   1.411       .  A
C2545      C2550   1.421       .  A
C2546      H2555   1.080       .  S
C2546      C2547   1.399       .  A
C2547      C2548   1.406       .  A
C2547      S2551   1.802       .  S
C2548      C2549   1.400       .  A
C2549      H2556   1.083       .  S
C2549      C2550   1.407       .  A
C2550      S2552   1.800       .  S
S2551      H2554   1.403       .  S
S2552      H2553   1.406       .  S
C2557      C2558   1.400       .  A
C2557      C2562   1.409       .  A
C2558      H2567   1.084       .  S
C2558      C2559   1.399       .  A
C2559      C2560   1.415       .  A
C2559      S2563   1.800       .  S
C2560      C2561   1.405       .  A
C2561      H2568   1.077       .  S
C2561      C2562   1.398       .  A
C2562      S2564   1.803       .  S
S2563      H2566   1.407       .  S
S2564      H2565   1.407       .  S
C2569      C2570   1.409       .  A
C2569      C2574   1.428       .  A
C2570      H2579   1.078       .  S
C2570      C2571   1.375       .  A
C2571      C2572   1.408       .  A
C2571      S2575   1.811       .  S
C2572      C2573   1.406       .  A
C2573      H2580   1.083       .  S
C2573      C2574   1.417       .  A
C2574      S2576   1.798       .  S
S2575      H2578   1.407       .  S
S2576      H2577   1.407       .  S
C2581      C2582   1.400       .  A
C2581      C2586   1.408       .  A
C2582      H2591   1.084       .  S
C2582      C2583   1.402       .  A
C2583      C2584   1.424       .  A
C2583      S2587   1.799       .  S
C2584      C2585   1.406       .  A
C2585      H2592   1.084       .  S
C2585      C2586   1.398       .  A
C2586      S2588   1.802       .  S
S2587      H2590   1.395       .  S
S2588      H2589   1.405       .  S
C2593      C2594   1.404       .  A
C2593      C2598   1.420       .  A
C2594      H2603   1.084       .  S
C2594      C2595   1.386       .  A
C2595      C2596   1.417       .  A
C2595      S2599   1.807       .  S
C2596      C2597   1.407       .  A
C2597      H2604   1.083       .  S
C2597      C2598   1.410       .  A
C2598      S2600   1.800       .  S
S2599      H2602   1.394       .  S
S2600      H2601   1.407       .  S
C2605      C2606   1.396       .  A
C2605      C2610   1.411       .  A
C2606      H2615   1.084       .  S
C2606      C2607   1.396       .  A
C2607      C2608   1.423       .  A
C2607      S2611   1.795       .  S
C2608      C2609   1.413       .  A
C2609      H2616   1.084       .  S
C2609      C2610   1.407       .  A
C2610      S2612   1.797       .  S
S2611      H2614   1.408       .  S
S2612      H2613   1.403       .  S
C2617      C2618   1.405       .  A
C2617      C2622   1.411       .  A
C2618      H2627   1.084       .  S
C2618      C2619   1.403       .  A
C2619      C2620   1.416       .  A
C2619      S2623   1.796       .  S
C2620      C2621   1.407       .  A
C2621      H2628   1.084       .  S
C2621      C2622   1.398       .  A
C2622      S2624   1.803       .  S
S2623      H2626   1.407       .  S
S2624      H2625   1.406       .  S
C2629      C2630   1.410       .  A
C2629      C2634   1.429       .  A
C2630      H2639   1.076       .  S
C2630      C2631   1.376       .  A
C2631      C2632   1.406       .  A
C2631      S2635   1.808       .  S
C2632      C2633   1.405       .  A
C2633      H2640   1.083       .  S
C2633      C2634   1.413       .  A
C2634      S2636   1.795       .  S
S2635      H2638   1.407       .  S
S2636      H2637   1.400       .  S
C2641      C2642   1.410       .  A
C2641      C2646   1.418       .  A
C2642      H2651   1.083       .  S
C2642      C2643   1.414       .  A
C2643      C2644   1.415       .  A
C2643      S2647   1.796       .  S
C2644      C2645   1.404       .  A
C2645      H2652   1.083       .  S
C2645      C2646   1.398       .  A
C2646      S2648   1.806       .  S
S2647      H2650   1.403       .  S
S2648      H2649   1.406       .  S
C2653      C2654   1.406       .  A
C2653      C2658   1.403       .  A
C2654      H2663   1.083       .  S
C2654      C2655   1.420       .  A
C2655      C2656   1.431       .  A
C2655      S2659   1.799       .  S
C2656      C2657   1.419       .  A
C2657      H2664   1.073       .  S
C2657      C2658   1.384       .  A
C2658      S2660   1.809       .  S
S2659      H2662   1.407       .  S
S2660      H2661   1.407       .  S
C2665      C2666   1.406       .  A
C2665      C2670   1.425       .  A
C2666      H2675   1.070       .  S
C2666      C2667   1.392       .  A
C2667      C2668   1.407       .  A
C2667      S2671   1.806       .  S
C2668      C2669   1.398       .  A
C2669      H2676   1.084       .  S
C2669      C2670   1.405       .  A
C2670      S2672   1.799       .  S
S2671      H2674   1.407       .  S
S2672      H2673   1.395       .  S
C2677      C2678   1.405       .  A
C2677      C2682   1.419       .  A
C2678      H2687   1.084       .  S
C2678      C2679   1.388       .  A
C2679      C2680   1.418       .  A
C2679      S2683   1.806       .  S
C2680      C2681   1.410       .  A
C2681      H2688   1.083       .  S
C2681      C2682   1.414       .  A
C2682      S2684   1.799       .  S
S2683      H2686   1.392       .  S
S2684      H2685   1.406       .  S
C2689      C2690   1.404       .  A
C2689      C2694   1.414       .  A
C2690      H2699   1.083       .  S
C2690      C2691   1.410       .  A
C2691      C2692   1.422       .  A
C2691      S2695   1.800       .  S
C2692      C2693   1.400       .  A
C2693      H2700   1.078       .  S
C2693      C2694   1.389       .  A
C2694      S2696   1.808       .  S
S2695      H2698   1.395       .  S
S2696      H2697   1.407       .  S
C2701      C2702   1.403       .  A
C2701      C2706   1.408       .  A
C2702      H2711   1.083       .  S
C2702      C2703   1.403       .  A
C2703      C2704   1.419       .  A
C2703      S2707   1.802       .  S
C2704      C2705   1.409       .  A
C2705      H2712   1.083       .  S
C2705      C2706   1.399       .  A
C2706      S2708   1.801       .  S
S2707      H2710   1.407       .  S
S2708      H2709   1.403       .  S
C2713      C2714   1.395       .  A
C2713      C2718   1.408       .  A
C2714      H2723   1.085       .  S
C2714      C2715   1.398       .  A
C2715      C2716   1.429       .  A
C2715      S2719   1.796       .  S
C2716      C2717   1.408       .  A
C2717      H2724   1.081       .  S
C2717      C2718   1.400       .  A
C2718      S2720   1.801       .  S
S2719      H2722   1.379       .  S
S2720      H2721   1.405       .  S
C2725      C2726   1.410       .  A
C2725      C2730   1.409       .  A
C2726      H2735   1.081       .  S
C2726      C2727   1.422       .  A
C2727      C2728   1.427       .  A
C2727      S2731   1.803       .  S
C2728      C2729   1.409       .  A
C2729      H2736   1.078       .  S
C2729      C2730   1.373       .  A
C2730      S2732   1.812       .  S
S2731      H2734   1.407       .  S
S2732      H2733   1.407       .  S
C2737      C2738   1.404       .  A
C2737      C2742   1.411       .  A
C2738      H2747   1.084       .  S
C2738      C2739   1.403       .  A
C2739      C2740   1.423       .  A
C2739      S2743   1.801       .  S
C2740      C2741   1.411       .  A
C2741      H2748   1.084       .  S
C2741      C2742   1.401       .  A
C2742      S2744   1.802       .  S
S2743      H2746   1.395       .  S
S2744      H2745   1.406       .  S
C2749      C2750   1.409       .  A
C2749      C2754   1.421       .  A
C2750      H2759   1.079       .  S
C2750      C2751   1.411       .  A
C2751      C2752   1.417       .  A
C2751      S2755   1.800       .  S
C2752      C2753   1.403       .  A
C2753      H2760   1.084       .  S
C2753      C2754   1.395       .  A
C2754      S2756   1.801       .  S
S2755      H2758   1.406       .  S
S2756      H2757   1.380       .  S
C2761      C2762   1.412       .  A
C2761      C2766   1.414       .  A
C2762      H2771   1.083       .  S
C2762      C2763   1.416       .  A
C2763      C2764   1.417       .  A
C2763      S2767   1.799       .  S
C2764      C2765   1.408       .  A
C2765      H2772   1.083       .  S
C2765      C2766   1.394       .  A
C2766      S2768   1.808       .  S
S2767      H2770   1.406       .  S
S2768      H2769   1.407       .  S
C2773      C2774   1.400       .  A
C2773      C2778   1.410       .  A
C2774      H2783   1.084       .  S
C2774      C2775   1.401       .  A
C2775      C2776   1.416       .  A
C2775      S2779   1.800       .  S
C2776      C2777   1.405       .  A
C2777      H2784   1.077       .  S
C2777      C2778   1.397       .  A
C2778      S2780   1.803       .  S
S2779      H2782   1.407       .  S
S2780      H2781   1.407       .  S
C2785      C2786   1.399       .  A
C2785      C2790   1.407       .  A
C2786      H2795   1.085       .  S
C2786      C2787   1.398       .  A
C2787      C2788   1.425       .  A
C2787      S2791   1.798       .  S
C2788      C2789   1.413       .  A
C2789      H2796   1.082       .  S
C2789      C2790   1.401       .  A
C2790      S2792   1.803       .  S
S2791      H2794   1.387       .  S
S2792      H2793   1.405       .  S
C2797      C2798   1.405       .  A
C2797      C2802   1.416       .  A
C2798      H2807   1.084       .  S
C2798      C2799   1.392       .  A
C2799      C2800   1.416       .  A
C2799      S2803   1.801       .  S
C2800      C2801   1.409       .  A
C2801      H2808   1.083       .  S
C2801      C2802   1.411       .  A
C2802      S2804   1.800       .  S
S2803      H2806   1.387       .  S
S2804      H2805   1.406       .  S
C2809      C2810   1.403       .  A
C2809      C2814   1.409       .  A
C2810      H2819   1.083       .  S
C2810      C2811   1.408       .  A
C2811      C2812   1.417       .  A
C2811      S2815   1.795       .  S
C2812      C2813   1.402       .  A
C2813      H2820   1.066       .  S
C2813      C2814   1.388       .  A
C2814      S2816   1.807       .  S
S2815      H2818   1.405       .  S
S2816      H2817   1.407       .  S
C2821      C2822   1.405       .  A
C2821      C2826   1.407       .  A
C2822      H2831   1.084       .  S
C2822      C2823   1.408       .  A
C2823      C2824   1.423       .  A
C2823      S2827   1.809       .  S
C2824      C2825   1.411       .  A
C2825      H2832   1.082       .  S
C2825      C2826   1.396       .  A
C2826      S2828   1.807       .  S
S2827      H2830   1.395       .  S
S2828      H2829   1.403       .  S
C2833      C2834   1.400       .  A
C2833      C2838   1.409       .  A
C2834      H2843   1.084       .  S
C2834      C2835   1.399       .  A
C2835      C2836   1.419       .  A
C2835      S2839   1.795       .  S
C2836      C2837   1.410       .  A
C2837      H2844   1.079       .  S
C2837      C2838   1.402       .  A
C2838      S2840   1.801       .  S
S2839      H2842   1.407       .  S
S2840      H2841   1.402       .  S
C2845      C2846   1.405       .  A
C2845      C2850   1.414       .  A
C2846      H2855   1.083       .  S
C2846      C2847   1.410       .  A
C2847      C2848   1.420       .  A
C2847      S2851   1.799       .  S
C2848      C2849   1.404       .  A
C2849      H2856   1.081       .  S
C2849      C2850   1.393       .  A
C2850      S2852   1.806       .  S
S2851      H2854   1.396       .  S
S2852      H2853   1.407       .  S
C2857      C2858   1.409       .  A
C2857      C2862   1.409       .  A
C2858      H2867   1.083       .  S
C2858      C2859   1.420       .  A
C2859      C2860   1.429       .  A
C2859      S2863   1.796       .  S
C2860      C2861   1.410       .  A
C2861      H2868   1.077       .  S
C2861      C2862   1.375       .  A
C2862      S2864   1.812       .  S
S2863      H2866   1.404       .  S
S2864      H2865   1.407       .  S
C2869      C2870   1.401       .  A
C2869      C2874   1.410       .  A
C2870      H2879   1.084       .  S
C2870      C2871   1.400       .  A
C2871      C2872   1.414       .  A
C2871      S2875   1.799       .  S
C2872      C2873   1.405       .  A
C2873      H2880   1.078       .  S
C2873      C2874   1.399       .  A
C2874      S2876   1.803       .  S
S2875      H2878   1.405       .  S
S2876      H2877   1.407       .  S
C2881      C2882   1.403       .  A
C2881      C2886   1.414       .  A
C2882      H2891   1.084       .  S
C2882      C2883   1.405       .  A
C2883      C2884   1.418       .  A
C2883      S2887   1.802       .  S
C2884      C2885   1.402       .  A
C2885      H2892   1.082       .  S
C2885      C2886   1.394       .  A
C2886      S2888   1.806       .  S
S2887      H2890   1.392       .  S
S2888      H2889   1.407       .  S
C2893      C2894   1.404       .  A
C2893      C2898   1.406       .  A
C2894      H2903   1.083       .  S
C2894      C2895   1.407       .  A
C2895      C2896   1.419       .  A
C2895      S2899   1.800       .  S
C2896      C2897   1.411       .  A
C2897      H2904   1.069       .  S
C2897      C2898   1.392       .  A
C2898      S2900   1.806       .  S
S2899      H2902   1.405       .  S
S2900      H2901   1.407       .  S
C2905      C2906   1.405       .  A
C2905      C2910   1.414       .  A
C2906      H2915   1.085       .  S
C2906      C2907   1.384       .  A
C2907      C2908   1.413       .  A
C2907      S2911   1.805       .  S
C2908      C2909   1.414       .  A
C2909      H2916   1.083       .  S
C2909      C2910   1.411       .  A
C2910      S2912   1.798       .  S
S2911      H2914   1.378       .  S
S2912      H2913   1.406       .  S
C2917      C2918   1.404       .  A
C2917      C2922   1.413       .  A
C2918      H2927   1.083       .  S
C2918      C2919   1.392       .  A
C2919      C2920   1.414       .  A
C2919      S2923   1.804       .  S
C2920      C2921   1.411       .  A
C2921      H2928   1.083       .  S
C2921      C2922   1.410       .  A
C2922      S2924   1.800       .  S
S2923      H2926   1.407       .  S
S2924      H2925   1.405       .  S
C2929      C2930   1.402       .  A
C2929      C2934   1.414       .  A
C2930      H2939   1.083       .  S
C2930      C2931   1.406       .  A
C2931      C2932   1.419       .  A
C2931      S2935   1.803       .  S
C2932      C2933   1.400       .  A
C2933      H2940   1.084       .  S
C2933      C2934   1.389       .  A
C2934      S2936   1.806       .  S
S2935      H2938   1.396       .  S
S2936      H2937   1.407       .  S
C2941      C2942   1.402       .  A
C2941      C2946   1.412       .  A
C2942      H2951   1.084       .  S
C2942      C2943   1.403       .  A
C2943      C2944   1.414       .  A
C2943      S2947   1.796       .  S
C2944      C2945   1.403       .  A
C2945      H2952   1.074       .  S
C2945      C2946   1.394       .  A
C2946      S2948   1.805       .  S
S2947      H2950   1.406       .  S
S2948      H2949   1.407       .  S
C2953      C2954   1.405       .  A
C2953      C2958   1.413       .  A
C2954      H2963   1.085       .  S
C2954      C2955   1.390       .  A
C2955      C2956   1.414       .  A
C2955      S2959   1.808       .  S
C2956      C2957   1.407       .  A
C2957      H2964   1.082       .  S
C2957      C2958   1.406       .  A
C2958      S2960   1.800       .  S
S2959      H2962   1.402       .  S
S2960      H2961   1.406       .  S
C2965      C2966   1.399       .  A
C2965      C2970   1.408       .  A
C2966      H2975   1.084       .  S
C2966      C2967   1.402       .  A
C2967      C2968   1.420       .  A
C2967      S2971   1.794       .  S
C2968      C2969   1.411       .  A
C2969      H2976   1.079       .  S
C2969      C2970   1.402       .  A
C2970      S2972   1.799       .  S
S2971      H2974   1.407       .  S
S2972      H2973   1.403       .  S
C2977      C2978   1.406       .  A
C2977      C2982   1.419       .  A
C2978      H2987   1.083       .  S
C2978      C2979   1.411       .  A
C2979      C2980   1.417       .  A
C2979      S2983   1.792       .  S
C2980      C2981   1.404       .  A
C2981      H2988   1.083       .  S
C2981      C2982   1.397       .  A
C2982      S2984   1.806       .  S
S2983      H2986   1.404       .  S
S2984      H2985   1.407       .  S
C2989      C2990   1.398       .  A
C2989      C2994   1.417       .  A
C2990      H2999   1.084       .  S
C2990      C2991   1.401       .  A
C2991      C2992   1.423       .  A
C2991      S2995   1.802       .  S
C2992      C2993   1.406       .  A
C2993      H3000   1.082       .  S
C2993      C2994   1.406       .  A
C2994      S2996   1.803       .  S
S2995      H2998   1.402       .  S
S2996      H2997   1.407       .  S
C3001      C3002   1.405       .  A
C3001      C3006   1.415       .  A
C3002      H3011   1.085       .  S
C3002      C3003   1.390       .  A
C3003      C3004   1.415       .  A
C3003      S3007   1.805       .  S
C3004      C3005   1.408       .  A
C3005      H3012   1.083       .  S
C3005      C3006   1.406       .  A
C3006      S3008   1.800       .  S
S3007      H3010   1.394       .  S
S3008      H3009   1.407       .  S
C3013      C3014   1.397       .  A
C3013      C3018   1.414       .  A
C3014      H3023   1.084       .  S
C3014      C3015   1.400       .  A
C3015      C3016   1.422       .  A
C3015      S3019   1.804       .  S
C3016      C3017   1.404       .  A
C3017      H3024   1.081       .  S
C3017      C3018   1.401       .  A
C3018      S3020   1.803       .  S
S3019      H3022   1.400       .  S
S3020      H3021   1.407       .  S
C3025      C3026   1.401       .  A
C3025      C3030   1.407       .  A
C3026      H3035   1.083       .  S
C3026      C3027   1.408       .  A
C3027      C3028   1.423       .  A
C3027      S3031   1.800       .  S
C3028      C3029   1.411       .  A
C3029      H3036   1.082       .  S
C3029      C3030   1.401       .  A
C3030      S3032   1.802       .  S
S3031      H3034   1.406       .  S
S3032      H3033   1.405       .  S
C3037      C3038   1.400       .  A
C3037      C3042   1.413       .  A
C3038      H3047   1.084       .  S
C3038      C3039   1.403       .  A
C3039      C3040   1.418       .  A
C3039      S3043   1.798       .  S
C3040      C3041   1.406       .  A
C3041      H3048   1.080       .  S
C3041      C3042   1.398       .  A
C3042      S3044   1.804       .  S
S3043      H3046   1.402       .  S
S3044      H3045   1.407       .  S
C3049      C3050   1.406       .  A
C3049      C3054   1.418       .  A
C3050      H3059   1.084       .  S
C3050      C3051   1.390       .  A
C3051      C3052   1.417       .  A
C3051      S3055   1.810       .  S
C3052      C3053   1.407       .  A
C3053      H3060   1.079       .  S
C3053      C3054   1.408       .  A
C3054      S3056   1.800       .  S
S3055      H3058   1.399       .  S
S3056      H3057   1.407       .  S
C3061      C3062   1.407       .  A
C3061      C3066   1.413       .  A
C3062      H3071   1.083       .  S
C3062      C3063   1.415       .  A
C3063      C3064   1.422       .  A
C3063      S3067   1.804       .  S
C3064      C3065   1.402       .  A
C3065      H3072   1.082       .  S
C3065      C3066   1.383       .  A
C3066      S3068   1.809       .  S
S3067      H3070   1.398       .  S
S3068      H3069   1.408       .  S
C3073      C3074   1.405       .  A
C3073      C3078   1.414       .  A
C3074      H3083   1.083       .  S
C3074      C3075   1.407       .  A
C3075      C3076   1.419       .  A
C3075      S3079   1.800       .  S
C3076      C3077   1.403       .  A
C3077      H3084   1.084       .  S
C3077      C3078   1.390       .  A
C3078      S3080   1.807       .  S
S3079      H3082   1.394       .  S
S3080      H3081   1.407       .  S
C3085      C3086   1.398       .  A
C3085      C3090   1.407       .  A
C3086      H3095   1.084       .  S
C3086      C3087   1.402       .  A
C3087      C3088   1.424       .  A
C3087      S3091   1.797       .  S
C3088      C3089   1.410       .  A
C3089      H3096   1.083       .  S
C3089      C3090   1.399       .  A
C3090      S3092   1.801       .  S
S3091      H3094   1.407       .  S
S3092      H3093   1.404       .  S
C3097      C3098   1.400       .  A
C3097      C3102   1.418       .  A
C3098      H3107   1.084       .  S
C3098      C3099   1.402       .  A
C3099      C3100   1.420       .  A
C3099      S3103   1.798       .  S
C3100      C3101   1.406       .  A
C3101      H3108   1.083       .  S
C3101      C3102   1.405       .  A
C3102      S3104   1.803       .  S
S3103      H3106   1.404       .  S
S3104      H3105   1.407       .  S
C3109      C3110   1.407       .  A
C3109      C3114   1.419       .  A
C3110      H3119   1.083       .  S
C3110      C3111   1.411       .  A
C3111      C3112   1.417       .  A
C3111      S3115   1.792       .  S
C3112      C3113   1.404       .  A
C3113      H3120   1.083       .  S
C3113      C3114   1.398       .  A
C3114      S3116   1.806       .  S
S3115      H3118   1.404       .  S
S3116      H3117   1.407       .  S
C3121      C3122   1.404       .  A
C3121      C3126   1.410       .  A
C3122      H3131   1.083       .  S
C3122      C3123   1.409       .  A
C3123      C3124   1.419       .  A
C3123      S3127   1.791       .  S
C3124      C3125   1.404       .  A
C3125      H3132   1.077       .  S
C3125      C3126   1.388       .  A
C3126      S3128   1.807       .  S
S3127      H3130   1.399       .  S
S3128      H3129   1.407       .  S
C3133      C3134   1.401       .  A
C3133      C3138   1.409       .  A
C3134      H3143   1.084       .  S
C3134      C3135   1.407       .  A
C3135      C3136   1.425       .  A
C3135      S3139   1.795       .  S
C3136      C3137   1.417       .  A
C3137      H3144   1.084       .  S
C3137      C3138   1.403       .  A
C3138      S3140   1.803       .  S
S3139      H3142   1.407       .  S
S3140      H3141   1.406       .  S
C3145      C3146   1.401       .  A
C3145      C3150   1.413       .  A
C3146      H3155   1.084       .  S
C3146      C3147   1.402       .  A
C3147      C3148   1.418       .  A
C3147      S3151   1.799       .  S
C3148      C3149   1.406       .  A
C3149      H3156   1.080       .  S
C3149      C3150   1.400       .  A
C3150      S3152   1.804       .  S
S3151      H3154   1.402       .  S
S3152      H3153   1.407       .  S
C3157      C3158   1.402       .  A
C3157      C3162   1.414       .  A
C3158      H3167   1.084       .  S
C3158      C3159   1.407       .  A
C3159      C3160   1.421       .  A
C3159      S3163   1.799       .  S
C3160      C3161   1.407       .  A
C3161      H3168   1.076       .  S
C3161      C3162   1.399       .  A
C3162      S3164   1.806       .  S
S3163      H3166   1.394       .  S
S3164      H3165   1.407       .  S
C3169      C3170   1.402       .  A
C3169      C3174   1.409       .  A
C3170      H3179   1.084       .  S
C3170      C3171   1.403       .  A
C3171      C3172   1.418       .  A
C3171      S3175   1.804       .  S
C3172      C3173   1.410       .  A
C3173      H3180   1.079       .  S
C3173      C3174   1.400       .  A
C3174      S3176   1.803       .  S
S3175      H3178   1.400       .  S
S3176      H3177   1.407       .  S
C3181      C3182   1.414       .  A
C3181      C3186   1.423       .  A
C3182      H3191   1.082       .  S
C3182      C3183   1.414       .  A
C3183      C3184   1.418       .  A
C3183      S3187   1.799       .  S
C3184      C3185   1.397       .  A
C3185      H3192   1.081       .  S
C3185      C3186   1.382       .  A
C3186      S3188   1.797       .  S
S3187      H3190   1.405       .  S
S3188      H3189   1.408       .  S
C3193      C3194   1.405       .  A
C3193      C3198   1.416       .  A
C3194      H3203   1.085       .  S
C3194      C3195   1.391       .  A
C3195      C3196   1.415       .  A
C3195      S3199   1.804       .  S
C3196      C3197   1.411       .  A
C3197      H3204   1.083       .  S
C3197      C3198   1.413       .  A
C3198      S3200   1.801       .  S
S3199      H3202   1.395       .  S
S3200      H3201   1.405       .  S
C3205      C3206   1.404       .  A
C3205      C3210   1.405       .  A
C3206      H3215   1.083       .  S
C3206      C3207   1.417       .  A
C3207      C3208   1.430       .  A
C3207      S3211   1.799       .  S
C3208      C3209   1.415       .  A
C3209      H3216   1.077       .  S
C3209      C3210   1.385       .  A
C3210      S3212   1.807       .  S
S3211      H3214   1.403       .  S
S3212      H3213   1.407       .  S
C3217      C3218   1.396       .  A
C3217      C3222   1.406       .  A
C3218      H3227   1.084       .  S
C3218      C3219   1.397       .  A
C3219      C3220   1.422       .  A
C3219      S3223   1.801       .  S
C3220      C3221   1.410       .  A
C3221      H3228   1.075       .  S
C3221      C3222   1.398       .  A
C3222      S3224   1.803       .  S
S3223      H3226   1.397       .  S
S3224      H3225   1.406       .  S
C3229      C3230   1.399       .  A
C3229      C3234   1.413       .  A
C3230      H3239   1.084       .  S
C3230      C3231   1.399       .  A
C3231      C3232   1.416       .  A
C3231      S3235   1.802       .  S
C3232      C3233   1.408       .  A
C3233      H3240   1.078       .  S
C3233      C3234   1.404       .  A
C3234      S3236   1.803       .  S
S3235      H3238   1.408       .  S
S3236      H3237   1.405       .  S
C3241      C3242   1.412       .  A
C3241      C3246   1.421       .  A
C3242      H3251   1.081       .  S
C3242      C3243   1.403       .  A
C3243      C3244   1.409       .  A
C3243      S3247   1.796       .  S
C3244      C3245   1.402       .  A
C3245      H3252   1.085       .  S
C3245      C3246   1.395       .  A
C3246      S3248   1.800       .  S
S3247      H3250   1.406       .  S
S3248      H3249   1.387       .  S
C3253      C3254   1.404       .  A
C3253      C3258   1.417       .  A
C3254      H3263   1.084       .  S
C3254      C3255   1.386       .  A
C3255      C3256   1.418       .  A
C3255      S3259   1.810       .  S
C3256      C3257   1.408       .  A
C3257      H3264   1.083       .  S
C3257      C3258   1.410       .  A
C3258      S3260   1.800       .  S
S3259      H3262   1.397       .  S
S3260      H3261   1.406       .  S
C3265      C3266   1.403       .  A
C3265      C3270   1.417       .  A
C3266      H3275   1.085       .  S
C3266      C3267   1.377       .  A
C3267      C3268   1.414       .  A
C3267      S3271   1.806       .  S
C3268      C3269   1.416       .  A
C3269      H3276   1.082       .  S
C3269      C3270   1.417       .  A
C3270      S3272   1.799       .  S
S3271      H3274   1.396       .  S
S3272      H3273   1.405       .  S
C3277      C3278   1.407       .  A
C3277      C3282   1.413       .  A
C3278      H3287   1.084       .  S
C3278      C3279   1.400       .  A
C3279      C3280   1.413       .  A
C3279      S3283   1.795       .  S
C3280      C3281   1.407       .  A
C3281      H3288   1.082       .  S
C3281      C3282   1.407       .  A
C3282      S3284   1.802       .  S
S3283      H3286   1.402       .  S
S3284      H3285   1.406       .  S
C3289      C3290   1.405       .  A
C3289      C3294   1.410       .  A
C3290      H3299   1.084       .  S
C3290      C3291   1.402       .  A
C3291      C3292   1.419       .  A
C3291      S3295   1.799       .  S
C3292      C3293   1.411       .  A
C3293      H3300   1.083       .  S
C3293      C3294   1.404       .  A
C3294      S3296   1.802       .  S
S3295      H3298   1.389       .  S
S3296      H3297   1.406       .  S
C3301      C3302   1.405       .  A
C3301      C3306   1.418       .  A
C3302      H3311   1.080       .  S
C3302      C3303   1.401       .  A
C3303      C3304   1.412       .  A
C3303      S3307   1.803       .  S
C3304      C3305   1.400       .  A
C3305      H3312   1.083       .  S
C3305      C3306   1.407       .  A
C3306      S3308   1.804       .  S
S3307      H3310   1.407       .  S
S3308      H3309   1.407       .  S
C3313      C3314   1.404       .  A
C3313      C3318   1.413       .  A
C3314      H3323   1.083       .  S
C3314      C3315   1.411       .  A
C3315      C3316   1.419       .  A
C3315      S3319   1.797       .  S
C3316      C3317   1.401       .  A
C3317      H3324   1.080       .  S
C3317      C3318   1.391       .  A
C3318      S3320   1.806       .  S
S3319      H3322   1.404       .  S
S3320      H3321   1.407       .  S
C3325      C3326   1.407       .  A
C3325      C3330   1.417       .  A
C3326      H3335   1.083       .  S
C3326      C3327   1.395       .  A
C3327      C3328   1.417       .  A
C3327      S3331   1.809       .  S
C3328      C3329   1.412       .  A
C3329      H3336   1.083       .  S
C3329      C3330   1.415       .  A
C3330      S3332   1.799       .  S
S3331      H3334   1.407       .  S
S3332      H3333   1.406       .  S
C3337      C3338   1.401       .  A
C3337      C3342   1.406       .  A
C3338      H3347   1.084       .  S
C3338      C3339   1.405       .  A
C3339      C3340   1.418       .  A
C3339      S3343   1.798       .  S
C3340      C3341   1.412       .  A
C3341      H3348   1.067       .  S
C3341      C3342   1.396       .  A
C3342      S3344   1.805       .  S
S3343      H3346   1.405       .  S
S3344      H3345   1.406       .  S
C3349      C3350   1.403       .  A
C3349      C3354   1.410       .  A
C3350      H3359   1.084       .  S
C3350      C3351   1.405       .  A
C3351      C3352   1.418       .  A
C3351      S3355   1.796       .  S
C3352      C3353   1.403       .  A
C3353      H3360   1.071       .  S
C3353      C3354   1.391       .  A
C3354      S3356   1.806       .  S
S3355      H3358   1.400       .  S
S3356      H3357   1.407       .  S
C3361      C3362   1.399       .  A
C3361      C3366   1.414       .  A
C3362      H3371   1.083       .  S
C3362      C3363   1.402       .  A
C3363      C3364   1.413       .  A
C3363      S3367   1.805       .  S
C3364      C3365   1.406       .  A
C3365      H3372   1.078       .  S
C3365      C3366   1.403       .  A
C3366      S3368   1.802       .  S
S3367      H3370   1.407       .  S
S3368      H3369   1.400       .  S
C3373      C3374   1.399       .  A
C3373      C3378   1.407       .  A
C3374      H3383   1.083       .  S
C3374      C3375   1.404       .  A
C3375      C3376   1.422       .  A
C3375      S3379   1.800       .  S
C3376      C3377   1.409       .  A
C3377      H3384   1.083       .  S
C3377      C3378   1.397       .  A
C3378      S3380   1.797       .  S
S3379      H3382   1.407       .  S
S3380      H3381   1.404       .  S
C3385      C3386   1.406       .  A
C3385      C3390   1.423       .  A
C3386      H3395   1.080       .  S
C3386      C3387   1.383       .  A
C3387      C3388   1.412       .  A
C3387      S3391   1.807       .  S
C3388      C3389   1.411       .  A
C3389      H3396   1.082       .  S
C3389      C3390   1.412       .  A
C3390      S3392   1.800       .  S
S3391      H3394   1.407       .  S
S3392      H3393   1.407       .  S
C3397      C3398   1.401       .  A
C3397      C3402   1.408       .  A
C3398      H3407   1.084       .  S
C3398      C3399   1.401       .  A
C3399      C3400   1.417       .  A
C3399      S3403   1.804       .  S
C3400      C3401   1.411       .  A
C3401      H3408   1.068       .  S
C3401      C3402   1.400       .  A
C3402      S3404   1.803       .  S
S3403      H3406   1.404       .  S
S3404      H3405   1.403       .  S
C3409      C3410   1.412       .  A
C3409      C3414   1.415       .  A
C3410      H3419   1.083       .  S
C3410      C3411   1.413       .  A
C3411      C3412   1.412       .  A
C3411      S3415   1.794       .  S
C3412      C3413   1.406       .  A
C3413      H3420   1.085       .  S
C3413      C3414   1.388       .  A
C3414      S3416   1.806       .  S
S3415      H3418   1.406       .  S
S3416      H3417   1.393       .  S
C3421      C3422   1.405       .  A
C3421      C3426   1.405       .  A
C3422      H3431   1.083       .  S
C3422      C3423   1.416       .  A
C3423      C3424   1.430       .  A
C3423      S3427   1.797       .  S
C3424      C3425   1.411       .  A
C3425      H3432   1.078       .  S
C3425      C3426   1.382       .  A
C3426      S3428   1.804       .  S
S3427      H3430   1.400       .  S
S3428      H3429   1.407       .  S
C3433      C3434   1.413       .  A
C3433      C3438   1.414       .  A
C3434      H3443   1.081       .  S
C3434      C3435   1.416       .  A
C3435      C3436   1.418       .  A
C3435      S3439   1.799       .  S
C3436      C3437   1.405       .  A
C3437      H3444   1.084       .  S
C3437      C3438   1.382       .  A
C3438      S3440   1.803       .  S
S3439      H3442   1.406       .  S
S3440      H3441   1.400       .  S
C3445      C3446   1.403       .  A
C3445      C3450   1.413       .  A
C3446      H3455   1.084       .  S
C3446      C3447   1.411       .  A
C3447      C3448   1.421       .  A
C3447      S3451   1.800       .  S
C3448      C3449   1.406       .  A
C3449      H3456   1.082       .  S
C3449      C3450   1.397       .  A
C3450      S3452   1.805       .  S
S3451      H3454   1.394       .  S
S3452      H3453   1.407       .  S
C3457      C3458   1.412       .  A
C3457      C3462   1.419       .  A
C3458      H3467   1.081       .  S
C3458      C3459   1.400       .  A
C3459      C3460   1.408       .  A
C3459      S3463   1.798       .  S
C3460      C3461   1.409       .  A
C3461      H3468   1.084       .  S
C3461      C3462   1.408       .  A
C3462      S3464   1.805       .  S
S3463      H3466   1.406       .  S
S3464      H3465   1.399       .  S
C3469      C3470   1.402       .  A
C3469      C3474   1.418       .  A
C3470      H3479   1.083       .  S
C3470      C3471   1.389       .  A
C3471      C3472   1.414       .  A
C3471      S3475   1.807       .  S
C3472      C3473   1.404       .  A
C3473      H3480   1.083       .  S
C3473      C3474   1.406       .  A
C3474      S3476   1.802       .  S
S3475      H3478   1.407       .  S
S3476      H3477   1.396       .  S
C3481      C3482   1.406       .  A
C3481      C3486   1.417       .  A
C3482      H3491   1.072       .  S
C3482      C3483   1.396       .  A
C3483      C3484   1.412       .  A
C3483      S3487   1.805       .  S
C3484      C3485   1.402       .  A
C3485      H3492   1.084       .  S
C3485      C3486   1.405       .  A
C3486      S3488   1.794       .  S
S3487      H3490   1.407       .  S
S3488      H3489   1.408       .  S
C3493      C3494   1.401       .  A
C3493      C3498   1.416       .  A
C3494      H3503   1.082       .  S
C3494      C3495   1.389       .  A
C3495      C3496   1.416       .  A
C3495      S3499   1.807       .  S
C3496      C3497   1.405       .  A
C3497      H3504   1.083       .  S
C3497      C3498   1.407       .  A
C3498      S3500   1.794       .  S
S3499      H3502   1.407       .  S
S3500      H3501   1.401       .  S
C3505      C3506   1.407       .  A
C3505      C3510   1.419       .  A
C3506      H3515   1.076       .  S
C3506      C3507   1.398       .  A
C3507      C3508   1.410       .  A
C3507      S3511   1.804       .  S
C3508      C3509   1.399       .  A
C3509      H3516   1.084       .  S
C3509      C3510   1.402       .  A
C3510      S3512   1.801       .  S
S3511      H3514   1.407       .  S
S3512      H3513   1.405       .  S
C3517      C3518   1.410       .  A
C3517      C3522   1.422       .  A
C3518      H3527   1.079       .  S
C3518      C3519   1.406       .  A
C3519      C3520   1.412       .  A
C3519      S3523   1.803       .  S
C3520      C3521   1.396       .  A
C3521      H3528   1.084       .  S
C3521      C3522   1.399       .  A
C3522      S3524   1.802       .  S
S3523      H3526   1.404       .  S
S3524      H3525   1.396       .  S
C3529      C3530   1.405       .  A
C3529      C3534   1.414       .  A
C3530      H3539   1.085       .  S
C3530      C3531   1.388       .  A
C3531      C3532   1.416       .  A
C3531      S3535   1.808       .  S
C3532      C3533   1.408       .  A
C3533      H3540   1.083       .  S
C3533      C3534   1.409       .  A
C3534      S3536   1.799       .  S
S3535      H3538   1.393       .  S
S3536      H3537   1.406       .  S
C3541      C3542   1.403       .  A
C3541      C3546   1.410       .  A
C3542      H3551   1.082       .  S
C3542      C3543   1.412       .  A
C3543      C3544   1.418       .  A
C3543      S3547   1.801       .  S
C3544      C3545   1.398       .  A
C3545      H3552   1.077       .  S
C3545      C3546   1.385       .  A
C3546      S3548   1.806       .  S
S3547      H3550   1.407       .  S
S3548      H3549   1.408       .  S
C3553      C3554   1.404       .  A
C3553      C3558   1.415       .  A
C3554      H3563   1.085       .  S
C3554      C3555   1.385       .  A
C3555      C3556   1.416       .  A
C3555      S3559   1.809       .  S
C3556      C3557   1.409       .  A
C3557      H3564   1.082       .  S
C3557      C3558   1.409       .  A
C3558      S3560   1.799       .  S
S3559      H3562   1.397       .  S
S3560      H3561   1.406       .  S
C3565      C3566   1.413       .  A
C3565      C3570   1.431       .  A
C3566      H3575   1.075       .  S
C3566      C3567   1.374       .  A
C3567      C3568   1.404       .  A
C3567      S3571   1.811       .  S
C3568      C3569   1.406       .  A
C3569      H3576   1.083       .  S
C3569      C3570   1.418       .  A
C3570      S3572   1.796       .  S
S3571      H3574   1.407       .  S
S3572      H3573   1.402       .  S
C3577      C3578   1.405       .  A
C3577      C3582   1.408       .  A
C3578      H3587   1.083       .  S
C3578      C3579   1.409       .  A
C3579      C3580   1.423       .  A
C3579      S3583   1.802       .  S
C3580      C3581   1.410       .  A
C3581      H3588   1.073       .  S
C3581      C3582   1.399       .  A
C3582      S3584   1.808       .  S
S3583      H3586   1.400       .  S
S3584      H3585   1.407       .  S
C3589      C3590   1.405       .  A
C3589      C3594   1.418       .  A
C3590      H3599   1.084       .  S
C3590      C3591   1.394       .  A
C3591      C3592   1.417       .  A
C3591      S3595   1.807       .  S
C3592      C3593   1.406       .  A
C3593      H3600   1.083       .  S
C3593      C3594   1.408       .  A
C3594      S3596   1.800       .  S
S3595      H3598   1.399       .  S
S3596      H3597   1.406       .  S
C3601      C3602   1.403       .  A
C3601      C3606   1.414       .  A
C3602      H3611   1.082       .  S
C3602      C3603   1.395       .  A
C3603      C3604   1.415       .  A
C3603      S3607   1.806       .  S
C3604      C3605   1.404       .  A
C3605      H3612   1.083       .  S
C3605      C3606   1.406       .  A
C3606      S3608   1.793       .  S
S3607      H3610   1.407       .  S
S3608      H3609   1.404       .  S
C3613      C3614   1.399       .  A
C3613      C3618   1.412       .  A
C3614      H3623   1.084       .  S
C3614      C3615   1.399       .  A
C3615      C3616   1.418       .  A
C3615      S3619   1.802       .  S
C3616      C3617   1.406       .  A
C3617      H3624   1.080       .  S
C3617      C3618   1.401       .  A
C3618      S3620   1.803       .  S
S3619      H3622   1.404       .  S
S3620      H3621   1.406       .  S
C3625      C3626   1.408       .  A
C3625      C3630   1.409       .  A
C3626      H3635   1.084       .  S
C3626      C3627   1.405       .  A
C3627      C3628   1.418       .  A
C3627      S3631   1.807       .  S
C3628      C3629   1.409       .  A
C3629      H3636   1.081       .  S
C3629      C3630   1.397       .  A
C3630      S3632   1.803       .  S
S3631      H3634   1.398       .  S
S3632      H3633   1.406       .  S
C3637      C3638   1.401       .  A
C3637      C3642   1.411       .  A
C3638      H3647   1.083       .  S
C3638      C3639   1.401       .  A
C3639      C3640   1.419       .  A
C3639      S3643   1.799       .  S
C3640      C3641   1.409       .  A
C3641      H3648   1.081       .  S
C3641      C3642   1.410       .  A
C3642      S3644   1.796       .  S
S3643      H3646   1.406       .  S
S3644      H3645   1.404       .  S
C3649      C3650   1.410       .  A
C3649      C3654   1.417       .  A
C3650      H3659   1.081       .  S
C3650      C3651   1.405       .  A
C3651      C3652   1.410       .  A
C3651      S3655   1.801       .  S
C3652      C3653   1.401       .  A
C3653      H3660   1.084       .  S
C3653      C3654   1.401       .  A
C3654      S3656   1.794       .  S
S3655      H3658   1.401       .  S
S3656      H3657   1.407       .  S
C3661      C3662   1.411       .  A
C3661      C3666   1.419       .  A
C3662      H3671   1.080       .  S
C3662      C3663   1.407       .  A
C3663      C3664   1.411       .  A
C3663      S3667   1.800       .  S
C3664      C3665   1.398       .  A
C3665      H3672   1.084       .  S
C3665      C3666   1.394       .  A
C3666      S3668   1.796       .  S
S3667      H3670   1.406       .  S
S3668      H3669   1.407       .  S
C3673      C3674   1.409       .  A
C3673      C3678   1.417       .  A
C3674      H3683   1.083       .  S
C3674      C3675   1.410       .  A
C3675      C3676   1.417       .  A
C3675      S3679   1.799       .  S
C3676      C3677   1.406       .  A
C3677      H3684   1.084       .  S
C3677      C3678   1.386       .  A
C3678      S3680   1.811       .  S
S3679      H3682   1.406       .  S
S3680      H3681   1.395       .  S
C3685      C3686   1.410       .  A
C3685      C3690   1.424       .  A
C3686      H3695   1.071       .  S
C3686      C3687   1.397       .  A
C3687      C3688   1.407       .  A
C3687      S3691   1.804       .  S
C3688      C3689   1.397       .  A
C3689      H3696   1.084       .  S
C3689      C3690   1.401       .  A
C3690      S3692   1.800       .  S
S3691      H3694   1.407       .  S
S3692      H3693   1.400       .  S
C3697      C3698   1.401       .  A
C3697      C3702   1.413       .  A
C3698      H3707   1.084       .  S
C3698      C3699   1.401       .  A
C3699      C3700   1.416       .  A
C3699      S3703   1.798       .  S
C3700      C3701   1.404       .  A
C3701      H3708   1.078       .  S
C3701      C3702   1.399       .  A
C3702      S3704   1.804       .  S
S3703      H3706   1.406       .  S
S3704      H3705   1.407       .  S
C3709      C3710   1.401       .  A
C3709      C3714   1.411       .  A
C3710      H3719   1.083       .  S
C3710      C3711   1.410       .  A
C3711      C3712   1.416       .  A
C3711      S3715   1.803       .  S
C3712      C3713   1.403       .  A
C3713      H3720   1.073       .  S
C3713      C3714   1.396       .  A
C3714      S3716   1.805       .  S
S3715      H3718   1.407       .  S
S3716      H3717   1.406       .  S
C3721      C3722   1.400       .  A
C3721      C3726   1.411       .  A
C3722      H3731   1.083       .  S
C3722      C3723   1.398       .  A
C3723      C3724   1.418       .  A
C3723      S3727   1.795       .  S
C3724      C3725   1.411       .  A
C3725      H3732   1.080       .  S
C3725      C3726   1.406       .  A
C3726      S3728   1.801       .  S
S3727      H3730   1.407       .  S
S3728      H3729   1.406       .  S
C3733      C3734   1.404       .  A
C3733      C3738   1.411       .  A
C3734      H3743   1.083       .  S
C3734      C3735   1.395       .  A
C3735      C3736   1.414       .  A
C3735      S3739   1.806       .  S
C3736      C3737   1.408       .  A
C3737      H3744   1.082       .  S
C3737      C3738   1.408       .  A
C3738      S3740   1.795       .  S
S3739      H3742   1.406       .  S
S3740      H3741   1.406       .  S
C3745      C3746   1.403       .  A
C3745      C3750   1.412       .  A
C3746      H3755   1.084       .  S
C3746      C3747   1.407       .  A
C3747      C3748   1.419       .  A
C3747      S3751   1.804       .  S
C3748      C3749   1.401       .  A
C3749      H3756   1.083       .  S
C3749      C3750   1.389       .  A
C3750      S3752   1.806       .  S
S3751      H3754   1.396       .  S
S3752      H3753   1.407       .  S
C3757      C3758   1.401       .  A
C3757      C3762   1.406       .  A
C3758      H3767   1.084       .  S
C3758      C3759   1.408       .  A
C3759      C3760   1.421       .  A
C3759      S3763   1.798       .  S
C3760      C3761   1.407       .  A
C3761      H3768   1.067       .  S
C3761      C3762   1.390       .  A
C3762      S3764   1.807       .  S
S3763      H3766   1.404       .  S
S3764      H3765   1.407       .  S
C3769      C3770   1.404       .  A
C3769      C3774   1.412       .  A
C3770      H3779   1.085       .  S
C3770      C3771   1.394       .  A
C3771      C3772   1.416       .  A
C3771      S3775   1.802       .  S
C3772      C3773   1.409       .  A
C3773      H3780   1.083       .  S
C3773      C3774   1.408       .  A
C3774      S3776   1.796       .  S
S3775      H3778   1.393       .  S
S3776      H3777   1.405       .  S
C3781      C3782   1.400       .  A
C3781      C3786   1.410       .  A
C3782      H3791   1.084       .  S
C3782      C3783   1.398       .  A
C3783      C3784   1.419       .  A
C3783      S3787   1.793       .  S
C3784      C3785   1.413       .  A
C3785      H3792   1.080       .  S
C3785      C3786   1.407       .  A
C3786      S3788   1.801       .  S
S3787      H3790   1.407       .  S
S3788      H3789   1.406       .  S
C3793      C3794   1.402       .  A
C3793      C3798   1.412       .  A
C3794      H3803   1.085       .  S
C3794      C3795   1.393       .  A
C3795      C3796   1.420       .  A
C3795      S3799   1.802       .  S
C3796      C3797   1.409       .  A
C3797      H3804   1.082       .  S
C3797      C3798   1.410       .  A
C3798      S3800   1.794       .  S
S3799      H3802   1.382       .  S
S3800      H3801   1.406       .  S
C3805      C3806   1.405       .  A
C3805      C3810   1.407       .  A
C3806      H3815   1.084       .  S
C3806      C3807   1.404       .  A
C3807      C3808   1.421       .  A
C3807      S3811   1.808       .  S
C3808      C3809   1.411       .  A
C3809      H3816   1.083       .  S
C3809      C3810   1.395       .  A
C3810      S3812   1.803       .  S
S3811      H3814   1.392       .  S
S3812      H3813   1.406       .  S
C3817      C3818   1.400       .  A
C3817      C3822   1.414       .  A
C3818      H3827   1.086       .  S
C3818      C3819   1.386       .  A
C3819      C3820   1.420       .  A
C3819      S3823   1.798       .  S
C3820      C3821   1.412       .  A
C3821      H3828   1.079       .  S
C3821      C3822   1.413       .  A
C3822      S3824   1.798       .  S
S3823      H3826   1.366       .  S
S3824      H3825   1.406       .  S
C3829      C3830   1.402       .  A
C3829      C3834   1.411       .  A
C3830      H3839   1.084       .  S
C3830      C3831   1.397       .  A
C3831      C3832   1.413       .  A
C3831      S3835   1.801       .  S
C3832      C3833   1.410       .  A
C3833      H3840   1.082       .  S
C3833      C3834   1.407       .  A
C3834      S3836   1.802       .  S
S3835      H3838   1.407       .  S
S3836      H3837   1.404       .  S
C3841      C3842   1.405       .  A
C3841      C3846   1.416       .  A
C3842      H3851   1.077       .  S
C3842      C3843   1.402       .  A
C3843      C3844   1.412       .  A
C3843      S3847   1.803       .  S
C3844      C3845   1.400       .  A
C3845      H3852   1.084       .  S
C3845      C3846   1.402       .  A
C3846      S3848   1.801       .  S
S3847      H3850   1.404       .  S
S3848      H3849   1.405       .  S
C3853      C3854   1.413       .  A
C3853      C3858   1.414       .  A
C3854      H3863   1.080       .  S
C3854      C3855   1.415       .  A
C3855      C3856   1.419       .  A
C3855      S3859   1.797       .  S
C3856      C3857   1.406       .  A
C3857      H3864   1.084       .  S
C3857      C3858   1.383       .  A
C3858      S3860   1.803       .  S
S3859      H3862   1.407       .  S
S3860      H3861   1.379       .  S
C3865      C3866   1.408       .  A
C3865      C3870   1.416       .  A
C3866      H3875   1.083       .  S
C3866      C3867   1.401       .  A
C3867      C3868   1.409       .  A
C3867      S3871   1.802       .  S
C3868      C3869   1.403       .  A
C3869      H3876   1.085       .  S
C3869      C3870   1.397       .  A
C3870      S3872   1.799       .  S
S3871      H3874   1.405       .  S
S3872      H3873   1.392       .  S
C3877      C3878   1.408       .  A
C3877      C3882   1.416       .  A
C3878      H3887   1.081       .  S
C3878      C3879   1.405       .  A
C3879      C3880   1.411       .  A
C3879      S3883   1.798       .  S
C3880      C3881   1.400       .  A
C3881      H3888   1.083       .  S
C3881      C3882   1.394       .  A
C3882      S3884   1.804       .  S
S3883      H3886   1.403       .  S
S3884      H3885   1.406       .  S
C3889      C3890   1.399       .  A
C3889      C3894   1.410       .  A
C3890      H3899   1.084       .  S
C3890      C3891   1.399       .  A
C3891      C3892   1.417       .  A
C3891      S3895   1.802       .  S
C3892      C3893   1.407       .  A
C3893      H3900   1.069       .  S
C3893      C3894   1.399       .  A
C3894      S3896   1.804       .  S
S3895      H3898   1.408       .  S
S3896      H3897   1.402       .  S
C3901      C3902   1.394       .  A
C3901      C3906   1.413       .  A
C3902      H3911   1.084       .  S
C3902      C3903   1.394       .  A
C3903      C3904   1.422       .  A
C3903      S3907   1.795       .  S
C3904      C3905   1.408       .  A
C3905      H3912   1.084       .  S
C3905      C3906   1.403       .  A
C3906      S3908   1.799       .  S
S3907      H3910   1.408       .  S
S3908      H3909   1.403       .  S
C3913      C3914   1.415       .  A
C3913      C3918   1.413       .  A
C3914      H3923   1.080       .  S
C3914      C3915   1.414       .  A
C3915      C3916   1.415       .  A
C3915      S3919   1.799       .  S
C3916      C3917   1.401       .  A
C3917      H3924   1.085       .  S
C3917      C3918   1.373       .  A
C3918      S3920   1.801       .  S
S3919      H3922   1.405       .  S
S3920      H3921   1.391       .  S
C3925      C3926   1.401       .  A
C3925      C3930   1.411       .  A
C3926      H3935   1.084       .  S
C3926      C3927   1.403       .  A
C3927      C3928   1.417       .  A
C3927      S3931   1.800       .  S
C3928      C3929   1.407       .  A
C3929      H3936   1.075       .  S
C3929      C3930   1.403       .  A
C3930      S3932   1.803       .  S
S3931      H3934   1.405       .  S
S3932      H3933   1.405       .  S
C3937      C3938   1.408       .  A
C3937      C3942   1.403       .  A
C3938      H3947   1.082       .  S
C3938      C3939   1.425       .  A
C3939      C3940   1.431       .  A
C3939      S3943   1.800       .  S
C3940      C3941   1.415       .  A
C3941      H3948   1.075       .  S
C3941      C3942   1.371       .  A
C3942      S3944   1.813       .  S
S3943      H3946   1.407       .  S
S3944      H3945   1.407       .  S
C3949      C3950   1.398       .  A
C3949      C3954   1.408       .  A
C3950      H3959   1.084       .  S
C3950      C3951   1.400       .  A
C3951      C3952   1.421       .  A
C3951      S3955   1.793       .  S
C3952      C3953   1.409       .  A
C3953      H3960   1.080       .  S
C3953      C3954   1.402       .  A
C3954      S3956   1.801       .  S
S3955      H3958   1.407       .  S
S3956      H3957   1.404       .  S
C3961      C3962   1.403       .  A
C3961      C3966   1.412       .  A
C3962      H3971   1.083       .  S
C3962      C3963   1.402       .  A
C3963      C3964   1.417       .  A
C3963      S3967   1.800       .  S
C3964      C3965   1.410       .  A
C3965      H3972   1.081       .  S
C3965      C3966   1.410       .  A
C3966      S3968   1.798       .  S
S3967      H3970   1.406       .  S
S3968      H3969   1.402       .  S
C3973      C3974   1.401       .  A
C3973      C3978   1.413       .  A
C3974      H3983   1.084       .  S
C3974      C3975   1.404       .  A
C3975      C3976   1.417       .  A
C3975      S3979   1.794       .  S
C3976      C3977   1.405       .  A
C3977      H3984   1.075       .  S
C3977      C3978   1.398       .  A
C3978      S3980   1.805       .  S
S3979      H3982   1.407       .  S
S3980      H3981   1.407       .  S
C3985      C3986   1.409       .  A
C3985      C3990   1.417       .  A
C3986      H3995   1.084       .  S
C3986      C3987   1.399       .  A
C3987      C3988   1.409       .  A
C3987      S3991   1.802       .  S
C3988      C3989   1.406       .  A
C3989      H3996   1.083       .  S
C3989      C3990   1.405       .  A
C3990      S3992   1.806       .  S
S3991      H3994   1.406       .  S
S3992      H3993   1.406       .  S
C3997      C3998   1.405       .  A
C3997      C4002   1.416       .  A
C3998      H4007   1.085       .  S
C3998      C3999   1.386       .  A
C3999      C4000   1.416       .  A
C3999      S4003   1.805       .  S
C4000      C4001   1.410       .  A
C4001      H4008   1.082       .  S
C4001      C4002   1.410       .  A
C4002      S4004   1.798       .  S
S4003      H4006   1.385       .  S
S4004      H4005   1.407       .  S
C4009      C4010   1.404       .  A
C4009      C4014   1.417       .  A
C4010      H4019   1.083       .  S
C4010      C4011   1.409       .  A
C4011      C4012   1.416       .  A
C4011      S4015   1.793       .  S
C4012      C4013   1.403       .  A
C4013      H4020   1.084       .  S
C4013      C4014   1.398       .  A
C4014      S4016   1.806       .  S
S4015      H4018   1.404       .  S
S4016      H4017   1.407       .  S
C4021      C4022   1.407       .  A
C4021      C4026   1.406       .  A
C4022      H4031   1.083       .  S
C4022      C4023   1.420       .  A
C4023      C4024   1.430       .  A
C4023      S4027   1.798       .  S
C4024      C4025   1.414       .  A
C4025      H4032   1.075       .  S
C4025      C4026   1.382       .  A
C4026      S4028   1.808       .  S
S4027      H4030   1.407       .  S
S4028      H4029   1.407       .  S
