geometry optimzed in LAMMPS
_audit_creation_date              2020-11-30 
_audit_creation_method            'lammps2cif' 
_symmetry_space_group_name_H-M    'P1' 
_symmetry_Int_Tables_number       1 
_symmetry_cell_setting            triclinic 
loop_ 
_symmetry_equiv_pos_as_xyz 
  x,y,z 
_cell_length_a                    50.78361831 
_cell_length_b                    32.48006757767704 
_cell_length_c                    46.20648608015879 
_cell_angle_alpha                 89.97929423671364 
_cell_angle_beta                  111.44950622415065 
_cell_angle_gamma                 90.60965814547649 
loop_ 
_atom_site_label 
_atom_site_type_symbol 
_atom_site_fract_x 
_atom_site_fract_y 
_atom_site_fract_z 
_atom_site_charge 
C1          C  0.44175688  0.16754628  0.37518854     0.05900
C2          C  0.41206783  0.16638696  0.36681316    -0.10300
C3          C  0.39413752  0.18515937  0.33934614     0.03400
C4          C  0.40614995  0.20625490  0.32057895    -0.08800
C5          C  0.43567625  0.20969895  0.32940864     0.05900
C6          C  0.45320415  0.18849758  0.35592003    -0.08200
H7          H  0.40281891  0.15112677  0.38174183     0.11500
H8          H  0.39252247  0.22301479  0.30048093     0.09000
H9          H  0.47581298  0.18993910  0.36248640     0.10800
Zn10       Zn  0.27596042  0.26462577  0.30831754     1.49700
Zn11       Zn  0.21649388  0.26678001  0.25090467     1.49400
Zn12       Zn  0.24942212  0.18145978  0.26986787     1.49100
Zn13       Zn  0.22233713  0.22518962  0.31603634     1.49500
O14         O  0.24102108  0.23417135  0.28606055    -1.81400
O15         O  0.27755810  0.31705046  0.28570008    -0.72000
O16         O  0.20505171  0.23523769  0.21006490    -0.71800
O17         O  0.29257555  0.17590608  0.28125007    -0.71300
O18         O  0.23599974  0.31951647  0.24649358    -0.72000
O19         O  0.30988211  0.23032908  0.31200311    -0.71600
O20         O  0.22827731  0.17632962  0.22253022    -0.72200
O21         O  0.21975917  0.16457973  0.32320926    -0.71600
O22         O  0.18010854  0.28055563  0.25657174    -0.72400
O23         O  0.23505496  0.13384749  0.28923069    -0.71700
O24         O  0.18273927  0.24663752  0.29932566    -0.72200
O25         O  0.24153695  0.25417371  0.35745345    -0.72100
O26         O  0.27931779  0.28169209  0.35151865    -0.71900
C27         C  0.26020268  0.33503785  0.26197325     0.79900
C28         C  0.21109995  0.19994119  0.20238334     0.80400
C29         C  0.31350771  0.19710045  0.29934093     0.79300
C30         C  0.22436585  0.13220826  0.31028047     0.79700
C31         C  0.16922034  0.26881492  0.27607695     0.80800
C32         C  0.26415427  0.27563907  0.36783238     0.79900
C33         C  0.04742657  0.31789478  0.19413730     0.05900
C34         C  0.07621198  0.32457244  0.21145950    -0.10300
C35         C  0.09176944  0.29568772  0.23333276     0.03400
C36         C  0.07784038  0.26064707  0.23882361    -0.08800
C37         C  0.04887665  0.25412308  0.22259965     0.05900
C38         C  0.03356235  0.28281324  0.20013424    -0.08200
H39         H  0.09057806  0.00102220  0.18443131     0.11500
H40         H  0.08972708  0.23666713  0.25420492     0.09000
H41         H  0.01154473  0.27668175  0.18632416     0.08800
C42         C  0.30020127  0.13926289  0.20310130     0.05900
C43         C  0.28358578  0.11333855  0.21387091    -0.10300
C44         C  0.29591871  0.08379917  0.23658264     0.03400
C45         C  0.32555832  0.08055260  0.24903106    -0.08800
C46         C  0.34283296  0.10695410  0.23950466     0.05900
C47         C  0.33008822  0.13687562  0.21673710    -0.08200
H48         H  0.26080495  0.11446071  0.20324597     0.11500
H49         H  0.33539366  0.05598373  0.26507075     0.09000
H50         H  0.34330897  0.15635786  0.20854607     0.08800
Zn51       Zn  0.46296467  0.03936327  0.26496840     1.49700
Zn52       Zn  0.02263960  0.07474889  0.25188587     1.49400
Zn53       Zn  0.48859752  0.12660273  0.29701433     1.49100
Zn54       Zn  0.02779517  0.03866761  0.31793588     1.49500
O55         O  0.49778661  0.07161637  0.28490251    -1.81400
O56         O  0.46016194  0.02101292  0.22238432    -0.72000
O57         O  0.02264690  0.13567226  0.24273865    -0.71800
O58         O  0.44527827  0.13477093  0.28133420    -0.71300
O59         O  0.00370201  0.04502480  0.21077796    -0.72000
O60         O  0.42894788  0.07390284  0.25981152    -0.71600
O61         O  0.99573922  0.16479916  0.26552388    -0.72200
O62         O  0.03455188  0.07681189  0.35397509    -0.71600
O63         O  0.06364468  0.05648971  0.27096308    -0.72400
O64         O  0.00699117  0.13097859  0.33552187    -0.71700
O65         O  0.06593281  0.02795490  0.31552457    -0.72200
O66         O  0.00386677  0.32177193  0.33480770    -0.72100
O67         O  0.46328011  0.30920365  0.28525270    -0.71900
C68         C  0.47581612  0.02574798  0.20645072     0.79900
C69         C  0.01109975  0.16739920  0.24904569     0.80400
C70         C  0.42465943  0.11048150  0.26691325     0.79300
C71         C  0.02544398  0.11190604  0.35783269     0.79700
C72         C  0.07747449  0.03801877  0.29623033     0.80800
C73         C  0.47940198  0.29731268  0.31207526     0.79900
C74         C  0.19665397  0.33884723  0.39608909     0.05900
C75         C  0.21105013  0.03376488  0.38476998    -0.10300
C76         C  0.19963429  0.05116314  0.35510674     0.03400
C77         C  0.17181494  0.04087520  0.33565485    -0.08800
C78         C  0.15056892  0.34600497  0.35417757     0.05900
C79         C  0.16800542  0.32699772  0.38168501    -0.08200
H80         H  0.23199862  0.04319764  0.40024179     0.11500
H81         H  0.16277592  0.05680015  0.31377601     0.09000
H82         H  0.15872312  0.30514443  0.39303831     0.08800
C83         C  0.42896462  0.30443532  0.12143182     0.05900
C84         C  0.40047225  0.30801333  0.10174491    -0.10300
C85         C  0.39031106  0.28831176  0.07262499     0.03400
C86         C  0.40901474  0.26619360  0.06290228    -0.08800
C87         C  0.43712553  0.26057287  0.08255297     0.05900
C88         C  0.44721300  0.28006211  0.11186313    -0.08200
H89         H  0.39010902  0.98156478  0.11777907     0.11500
H90         H  0.40086573  0.24993859  0.04081649     0.09000
H91         H  0.46859835  0.27482351  0.12759556     0.08800
Zn92       Zn  0.22912365  0.22930619  0.07527843     1.49700
Zn93       Zn  0.28181488  0.20863454  0.05970247     1.49400
Zn94       Zn  0.22338184  0.19940713  0.00593510     1.49100
Zn95       Zn  0.24757327  0.29015388  0.03091931     1.49500
O96         O  0.24513203  0.23221926  0.04266794    -1.81400
O97         O  0.25336203  0.19657119  0.11366809    -0.72000
O98         O  0.28404057  0.15534941  0.03981987    -0.71800
O99         O  0.18527244  0.18927246  0.00824883    -0.71300
O100        O  0.29330892  0.19556308  0.10454133    -0.72000
O101        O  0.18835116  0.20993904  0.05547630    -0.71600
O102        O  0.25149898  0.14891330  0.51164605    -0.72200
O103        O  0.23449084  0.29845025  0.49099570    -0.71600
O104        O  0.31032113  0.24741009  0.05599144    -0.72400
O105        O  0.22215391  0.23390855  0.47468122    -0.71700
O106        O  0.28879419  0.30752926  0.04205197    -0.72200
O107        O  0.23136559  0.32819133  0.05501954    -0.72100
O108        O  0.22656432  0.28631187  0.09095271    -0.71900
C109        C  0.27978479  0.18910761  0.12237701     0.79900
C110        C  0.26773578  0.13359708  0.01755548     0.80400
C111        C  0.17392247  0.19708148  0.02809132     0.79300
C112        C  0.22409142  0.27199903  0.46918968     0.79700
C113        C  0.31104129  0.28575510  0.05081289     0.80800
C114        C  0.22588930  0.32209586  0.07953301     0.79900
C115        C  0.05086364  0.18938570  0.42562071     0.05900
C116        C  0.07917835  0.17825867  0.44185330    -0.10300
C117        C  0.09583258  0.19898173  0.46902065     0.03400
C118        C  0.08615241  0.23667339  0.98427136    -0.08800
C119        C  0.05584167  0.24361428  0.46384979     0.05900
C120        C  0.03925613  0.22200837  0.43684713    -0.08200
H121        H  0.08885864  0.15464581  0.43262354     0.11500
H122        H  0.09925138  0.25249752  0.00532438     0.09000
H123        H  0.01781557  0.23171815  0.42381503     0.08800
C124        C  0.31053034  0.32463977  0.44612897     0.05900
C125        C  0.29070066  0.02344587  0.46475974    -0.10300
C126        C  0.30223933  0.04894715  0.49123313     0.03400
C127        C  0.32446921  0.05065398  0.99824455    -0.08800
C128        C  0.35280676  0.33372009  0.49266693     0.05900
C129        C  0.33914504  0.31693251  0.46307632    -0.08200
H130        H  0.26885599  0.02723124  0.44983102     0.11500
H131        H  0.33193559  0.07328988  0.01674147     0.09000
H132        H  0.35131045  0.29954672  0.45235918     0.08800
C133        C  0.18853191  0.13480217  0.12624856     0.05900
C134        C  0.20424297  0.10701763  0.11595497    -0.10300
C135        C  0.19315483  0.09021474  0.08591479     0.03400
C136        C  0.16599617  0.10113081  0.06598180    -0.08800
C137        C  0.14890958  0.12676476  0.07605474     0.05900
C138        C  0.16074521  0.14467806  0.10620368    -0.08200
H139        H  0.22519618  0.09824860  0.13148358     0.11500
H140        H  0.15731915  0.08693575  0.04314120     0.09000
H141        H  0.14826477  0.16428869  0.11492075     0.08800
Zn142      Zn  0.46299576  0.10263438  0.02621083     1.49700
Zn143      Zn  0.01769797  0.09201487  0.99743648     1.49400
Zn144      Zn  0.01548854  0.11766104  0.06457282     1.49100
Zn145      Zn  0.48805055  0.01403784  0.04227953     1.49500
O146        O  0.49781118  0.07257766  0.04053353    -1.81400
O147        O  0.45899811  0.13837890  0.48115125    -0.72000
O148        O  0.05714159  0.11898850  0.02149016    -0.71800
O149        O  0.99280050  0.16689830  0.06962888    -0.71300
O150        O  0.00711840  0.10879879  0.46418614    -0.72000
O151        O  0.46312531  0.15264354  0.05168189    -0.71600
O152        O  0.05321611  0.13781156  0.06613008    -0.72200
O153        O  0.01315396  0.01770983  0.08227245    -0.71600
O154        O  0.02524717  0.03495795  0.98463186    -0.72400
O155        O  0.02510980  0.08084173  0.10185993    -0.71700
O156        O  0.00062854  0.31712186  0.01414704    -0.72200
O157        O  0.44592686  0.00331438  0.02644163    -0.72100
O158        O  0.42954444  0.06692855  0.02249836    -0.71900
C159        C  0.47177814  0.13726705  0.46224532     0.79900
C160        C  0.06767058  0.13472545  0.04887238     0.80400
C161        C  0.47951566  0.16573704  0.07812724     0.79300
C162        C  0.02441869  0.04203881  0.10534517     0.79700
C163        C  0.01681030  0.32423188  0.99918979     0.80800
C164        C  0.42551033  0.02811746  0.02100139     0.79900
C165        C  0.11815632  0.12865163  0.05556090    -0.13700
C166        C  0.09798677  0.14688017  0.06328783    -0.28900
H167        H  0.11126589  0.10969267  0.03466550     0.15300
H168        H  0.10385109  0.16523034  0.08431255     0.15900
C169        C  0.39631748  0.01173892  0.01095895    -0.13700
C170        C  0.37479977  0.03664903  0.00904252    -0.28900
H171        H  0.39240365  0.97991651  0.00326537     0.15300
H172        H  0.39488064  0.30810297  0.49851272     0.15900
C173        C  0.02504696  0.28902278  0.98426722    -0.13700
C174        C  0.04943177  0.28872757  0.97927320    -0.28900
H175        H  0.00586620  0.25794588  0.47128306     0.15300
H176        H  0.06405000  0.31467632  0.98697345     0.15900
C177        C  0.14277089  0.19642397  0.01780378    -0.13700
C178        C  0.12663527  0.18998078  0.98771938    -0.28900
H179        H  0.13332816  0.20739628  0.03393923     0.15300
H180        H  0.13711293  0.18043212  0.46753281     0.15900
C181        C  0.27938213  0.09427287  0.01194307    -0.13700
C182        C  0.27533468  0.07875842  0.98362529    -0.28900
H183        H  0.29564861  0.08112129  0.03214653     0.15300
H184        H  0.26444616  0.08941506  0.47860780     0.15900
C185        C  0.20837732  0.05811560  0.07564172    -0.13700
C186        C  0.21947213  0.02531803  0.09354686    -0.28900
H187        H  0.20656289  0.05810313  0.05145999     0.15300
H188        H  0.21857323  0.02337411  0.11665392     0.15900
C189        C  0.35980092  0.28128710  0.05529246    -0.13700
C190        C  0.33904032  0.30475321  0.05749934    -0.28900
H191        H  0.35402612  0.25222334  0.04269192     0.15300
H192        H  0.34333516  0.33532499  0.06775083     0.15900
C193        C  0.45346450  0.23024627  0.07211807    -0.13700
C194        C  0.47197574  0.20364903  0.09105435    -0.28900
H195        H  0.44642981  0.22501978  0.04716239     0.15300
H196        H  0.47959710  0.20754350  0.11611818     0.15900
C197        C  0.21349726  0.32434895  0.42777361    -0.13700
C198        C  0.21202931  0.28529614  0.43649782    -0.28900
H199        H  0.22646262  0.34671878  0.44453209     0.15300
H200        H  0.20004355  0.26267215  0.41925275     0.15900
C201        C  0.10810521  0.03085084  0.30429018    -0.13700
C202        C  0.12365690  0.01113245  0.33064199    -0.28900
H203        H  0.11800406  0.04553251  0.28975996     0.15300
H204        H  0.11030185  0.33325501  0.36070964     0.15900
C205        C  0.03782720  0.13049656  0.38906607    -0.13700
C206        C  0.03441237  0.17012146  0.39513749    -0.28900
H207        H  0.05167597  0.11119097  0.40742581     0.15300
H208        H  0.02008028  0.18930236  0.37710944     0.15900
C209        C  0.46773617  0.00582724  0.17577950    -0.13700
C210        C  0.44180820  0.98964585  0.16112024    -0.28900
H211        H  0.48343940  0.00446551  0.16507184     0.15300
H212        H  0.42200017  0.32462507  0.16373606     0.15900
C213        C  0.37341577  0.09703582  0.24990614    -0.13700
C214        C  0.39491330  0.12467852  0.25768910    -0.28900
H215        H  0.37846227  0.06446413  0.25243638     0.15300
H216        H  0.39067212  0.15739075  0.25760256     0.15900
C217        C  0.28518935  0.16461294  0.17522438    -0.13700
C218        C  0.29592139  0.17129244  0.15309013    -0.28900
H219        H  0.26343737  0.17320928  0.17082987     0.15300
H220        H  0.31718258  0.16113515  0.15668658     0.15900
C221        C  0.03659507  0.98563579  0.14376875    -0.13700
C222        C  0.03811110  0.02554957  0.13707497    -0.28900
H223        H  0.02347818  0.96468741  0.12583203     0.15300
H224        H  0.01739066  0.29624223  0.13592394     0.15900
C225        C  0.03692436  0.21352273  0.22608678    -0.13700
C226        C  0.01677244  0.20851633  0.23827702    -0.28900
H227        H  0.04844752  0.18681488  0.22318706     0.15300
H228        H  0.00653029  0.23534441  0.24328275     0.15900
C229        C  0.12307842  0.29840695  0.24526216    -0.13700
C230        C  0.13954339  0.27829022  0.27074484    -0.28900
H231        H  0.13274441  0.31394024  0.23072933     0.15300
H232        H  0.13040845  0.26452412  0.28639330     0.15900
C233        C  0.27303201  0.29354616  0.39953725    -0.13700
C234        C  0.29899197  0.31003179  0.41343722    -0.28900
H235        H  0.25879235  0.29119665  0.41216393     0.15300
H236        H  0.31364548  0.30953231  0.40119031     0.15900
C237        C  0.19732641  0.18664547  0.16928059    -0.13700
C238        C  0.20103499  0.14901338  0.15926498    -0.28900
H239        H  0.18392336  0.20851190  0.15277280     0.15300
H240        H  0.21493651  0.12781455  0.17583369     0.15900
C241        C  0.21548721  0.09206939  0.31887671    -0.13700
C242        C  0.21474989  0.08610107  0.34734070    -0.28900
H243        H  0.20781973  0.06821856  0.30119346     0.15300
H244        H  0.22445907  0.10887498  0.36546446     0.15900
C245        C  0.28568013  0.03384167  0.27136026    -0.13700
C246        C  0.27743203  0.05310395  0.24391012    -0.28900
H247        H  0.30522281  0.04332725  0.28977484     0.15300
H248        H  0.25728218  0.04495137  0.22589785     0.15900
C249        C  0.34291634  0.18408740  0.30524334    -0.13700
C250        C  0.36347596  0.18922970  0.33346403    -0.28900
H251        H  0.34799087  0.17185339  0.28607069     0.15300
H252        H  0.35773137  0.19842183  0.35297902     0.15900
C253        C  0.46115222  0.14980942  0.40516714    -0.13700
C254        C  0.45574039  0.15477012  0.43125733    -0.28900
H255        H  0.48016920  0.13418034  0.40599080     0.15300
H256        H  0.43701716  0.17192409  0.42975999     0.15900
C257        C  0.44724904  0.23942070  0.31240216    -0.13700
C258        C  0.47185015  0.26023046  0.32611795    -0.28900
H259        H  0.43331842  0.24857407  0.28928750     0.15300
H260        H  0.48545725  0.25311732  0.34977758     0.15900
C261        C  0.43976158  0.16704371  0.88131534     0.05900
C262        C  0.41015718  0.16212047  0.87242266    -0.10300
C263        C  0.39143900  0.18252615  0.84635121     0.03400
C264        C  0.40247264  0.20856000  0.82919895    -0.08800
C265        C  0.43186724  0.21514779  0.83828309     0.05900
C266        C  0.45031440  0.19287786  0.86369402    -0.08200
H267        H  0.40150113  0.14306062  0.88610427     0.11500
H268        H  0.38803091  0.22629711  0.81024604     0.09000
H269        H  0.47288058  0.19684112  0.87091704     0.10800
Zn270      Zn  0.27313161  0.25258376  0.81775411     1.49700
Zn271      Zn  0.21924517  0.26267267  0.75456240     1.49400
Zn272      Zn  0.24578180  0.17245152  0.77916206     1.49100
Zn273      Zn  0.21332057  0.22666643  0.81587841     1.49500
O274        O  0.23759825  0.22809475  0.79134203    -1.81400
O275        O  0.27965622  0.30546237  0.80001846    -0.72000
O276        O  0.21144978  0.22892496  0.71553642    -0.71800
O277        O  0.28902591  0.16325117  0.79194140    -0.71300
O278        O  0.24401265  0.31261954  0.75469471    -0.72000
O279        O  0.30640438  0.21768161  0.82219619    -0.71600
O280        O  0.22695764  0.16595349  0.73175956    -0.72200
O281        O  0.20389828  0.16817599  0.82026879    -0.71600
O282        O  0.18028284  0.28155033  0.75186389    -0.72400
O283        O  0.22828977  0.12899208  0.79940401    -0.71700
O284        O  0.17642330  0.25493833  0.79441011    -0.72200
O285        O  0.23117461  0.25194466  0.85902382    -0.72100
O286        O  0.27429610  0.26552385  0.86000905    -0.71900
C287        C  0.26731035  0.32521874  0.77512254     0.79900
C288        C  0.21453994  0.19125459  0.70991502     0.80400
C289        C  0.31007451  0.18426606  0.80997171     0.79300
C290        C  0.21114598  0.13310707  0.81371238     0.79700
C291        C  0.16607776  0.27483994  0.76916337     0.80800
C292        C  0.25627388  0.26523863  0.87311486     0.79900
C293        C  0.04499675  0.30746135  0.67286022     0.05900
C294        C  0.07433300  0.31367423  0.68811964    -0.10300
C295        C  0.08898469  0.29528661  0.71698530     0.03400
C296        C  0.07375294  0.27073069  0.73072344    -0.08800
C297        C  0.04455037  0.26377354  0.71572092     0.05900
C298        C  0.03025842  0.28257914  0.68697641    -0.08200
H299        H  0.08810849  0.99281620  0.68309069     0.11500
H300        H  0.08464125  0.25471313  0.75224312     0.09000
H301        H  0.00794861  0.27630970  0.67515014     0.08800
C302        C  0.31002998  0.13795152  0.70426012     0.05900
C303        C  0.29126462  0.11137837  0.71158512    -0.10300
C304        C  0.30148680  0.08250714  0.73550667     0.03400
C305        C  0.33091369  0.07981410  0.75174468    -0.08800
C306        C  0.34985678  0.10585679  0.74463442     0.05900
C307        C  0.33914949  0.13550998  0.72135112    -0.08200
H308        H  0.26892204  0.11116331  0.69778373     0.11500
H309        H  0.33943188  0.05553382  0.76853193     0.09000
H310        H  0.35353871  0.15442431  0.71448492     0.08800
Zn311      Zn  0.46659277  0.03458227  0.76211952     1.49700
Zn312      Zn  0.02527194  0.06881386  0.75429354     1.49400
Zn313      Zn  0.49310241  0.12565525  0.78621004     1.49100
Zn314      Zn  0.02692907  0.04553974  0.82156957     1.49500
O315        O  0.50150173  0.06717237  0.78061801    -1.81400
O316        O  0.46141448  0.01756510  0.71807565    -0.72000
O317        O  0.03450922  0.12563447  0.74418142    -0.71800
O318        O  0.45068178  0.13359288  0.77259277    -0.71300
O319        O  0.00407786  0.03913418  0.71452634    -0.72000
O320        O  0.43372978  0.06974699  0.76033660    -0.71600
O321        O  0.01215947  0.16910087  0.76429577    -0.72200
O322        O  0.03404512  0.08677534  0.85578078    -0.71600
O323        O  0.06220462  0.04038644  0.77333518    -0.72400
O324        O  0.01222932  0.14456701  0.83436607    -0.71700
O325        O  0.06461467  0.02662563  0.82128677    -0.72200
O326        O  0.00539941  0.32133932  0.82163251    -0.72100
O327        O  0.45653581  0.32138579  0.79741868    -0.71900
C328        C  0.47703037  0.02163382  0.70197572     0.79900
C329        C  0.02804201  0.16204409  0.74889977     0.80400
C330        C  0.43012996  0.10783503  0.76426733     0.79300
C331        C  0.02730780  0.12390002  0.85811811     0.79700
C332        C  0.07537241  0.02627352  0.80032155     0.80800
C333        C  0.47503487  0.30457806  0.82080695     0.79900
C334        C  0.19181267  0.33894274  0.88793913     0.05900
C335        C  0.21101527  0.01702219  0.87667229    -0.10300
C336        C  0.19662605  0.03108996  0.84636809     0.03400
C337        C  0.16760744  0.02229372  0.83164632    -0.08800
C338        C  0.14992501  0.34640359  0.84057302     0.05900
C339        C  0.16320297  0.33045556  0.87064646    -0.08200
H340        H  0.23307390  0.02514221  0.88833005     0.11500
H341        H  0.15666103  0.03501002  0.80882619     0.09000
H342        H  0.15074325  0.31376100  0.88157250     0.08800
C343        C  0.43871586  0.32028208  0.62368334     0.05900
C344        C  0.40884462  0.31852647  0.61055706    -0.10300
C345        C  0.39514869  0.29406832  0.58405735     0.03400
C346        C  0.41143228  0.27290647  0.57030370    -0.08800
C347        C  0.44095940  0.27412777  0.58334532     0.05900
C348        C  0.45446362  0.29818024  0.60979119    -0.08200
H349        H  0.39018675  0.98005383  0.61459049     0.11500
H350        H  0.40100986  0.25298176  0.55046521     0.09000
H351        H  0.47717269  0.29798039  0.62052930     0.08800
Zn352      Zn  0.22402390  0.23662773  0.57569659     1.49700
Zn353      Zn  0.28271172  0.21255617  0.57351766     1.49400
Zn354      Zn  0.22794714  0.20048987  0.51299787     1.49100
Zn355      Zn  0.25159908  0.29351452  0.53807573     1.49500
O356        O  0.24659865  0.23601901  0.54955388    -1.81400
O357        O  0.24064022  0.20308569  0.61437991    -0.72000
O358        O  0.28983728  0.16094082  0.55368977    -0.71800
O359        O  0.18721981  0.18760925  0.50918759    -0.71300
O360        O  0.28473788  0.19695101  0.61624304    -0.72000
O361        O  0.18463773  0.21730716  0.55148482    -0.71600
O362        O  0.24281757  0.14544547  0.00121210    -0.72200
O363        O  0.22664072  0.29784949  0.98421629    -0.71600
O364        O  0.31393677  0.25224730  0.57688653    -0.72400
O365        O  0.21440671  0.23375825  0.96700714    -0.71700
O366        O  0.29359378  0.30965189  0.55322504    -0.72200
O367        O  0.23259821  0.33455738  0.55774651    -0.72100
O368        O  0.22055110  0.29391107  0.58971387    -0.71900
C369        C  0.26611340  0.19231617  0.62844038     0.79900
C370        C  0.27636180  0.13907392  0.52994115     0.80400
C371        C  0.17298052  0.19912063  0.52549721     0.79300
C372        C  0.21534830  0.27225106  0.96201641     0.79700
C373        C  0.31561463  0.28901226  0.56811218     0.80800
C374        C  0.22294371  0.32947220  0.57942733     0.79900
C375        C  0.05280261  0.19941890  0.92756479     0.05900
C376        C  0.08006006  0.18483111  0.94475705    -0.10300
C377        C  0.09674493  0.20289638  0.97313239     0.03400
C378        C  0.08402848  0.23194395  0.47974343    -0.08800
C379        C  0.05902387  0.25163846  0.96756888     0.05900
C380        C  0.04232626  0.23286968  0.93922183    -0.08200
H381        H  0.08905240  0.16054635  0.93535738     0.11500
H382        H  0.09707464  0.24992698  0.49966075     0.09000
H383        H  0.02163604  0.24506035  0.92584259     0.08800
C384        C  0.30211319  0.31616023  0.95037816     0.05900
C385        C  0.28719090  0.02206554  0.95334689    -0.10300
C386        C  0.29563606  0.04871511  0.97914158     0.03400
C387        C  0.33153893  0.04609980  0.50901008    -0.08800
C388        C  0.34368158  0.34336952  0.99177896     0.05900
C389        C  0.33114881  0.31518287  0.96781279    -0.08200
H390        H  0.26569763  0.02294093  0.93721227     0.11500
H391        H  0.34142918  0.06647318  0.52850302     0.09000
H392        H  0.34449726  0.29445788  0.96101207     0.08800
C393        C  0.19417234  0.12578608  0.63473600     0.05900
C394        C  0.21007051  0.09921062  0.62376046    -0.10300
C395        C  0.19919586  0.08461828  0.59301191     0.03400
C396        C  0.17206341  0.09618136  0.57333214    -0.08800
C397        C  0.15483508  0.12016647  0.58432370     0.05900
C398        C  0.16655373  0.13629644  0.61491769    -0.08200
H399        H  0.23093636  0.08990595  0.63914973     0.11500
H400        H  0.16344978  0.08343136  0.55000276     0.09000
H401        H  0.15411564  0.15524521  0.62414088     0.08800
Zn402      Zn  0.46734127  0.12405180  0.52460819     1.49700
Zn403      Zn  0.02537437  0.07962258  0.50722763     1.49400
Zn404      Zn  0.01828648  0.11356571  0.57023559     1.49100
Zn405      Zn  0.48448372  0.03257021  0.54168152     1.49500
O406        O  0.49910625  0.08855763  0.53981622    -1.81400
O407        O  0.45642317  0.12285036  0.98429868    -0.72000
O408        O  0.06449424  0.10431159  0.53310764    -0.71800
O409        O  0.99529561  0.16423788  0.57225212    -0.71300
O410        O  0.99291222  0.12100876  0.95596726    -0.72000
O411        O  0.47228584  0.17633080  0.54747708    -0.71600
O412        O  0.05747891  0.13107036  0.57412197    -0.72200
O413        O  0.00905372  0.01497523  0.58734556    -0.71600
O414        O  0.03027756  0.01884720  0.49909728    -0.72400
O415        O  0.02505960  0.07659431  0.60759180    -0.71700
O416        O  0.99787819  0.32018708  0.50587429    -0.72200
O417        O  0.44125970  0.03119214  0.53082430    -0.72100
O418        O  0.43270004  0.09822957  0.52684979    -0.71900
C419        C  0.46957650  0.12630313  0.96580506     0.79900
C420        C  0.07353991  0.12361665  0.55913316     0.80400
C421        C  0.48567254  0.18501497  0.57584742     0.79300
C422        C  0.02188255  0.03808370  0.61073166     0.79700
C423        C  0.01165624  0.32289269  0.48770222     0.80800
C424        C  0.42449066  0.06139551  0.52754393     0.79900
C425        C  0.12403069  0.12211458  0.56440740    -0.13700
C426        C  0.10381615  0.13520110  0.57449573    -0.28900
H427        H  0.11731532  0.10698082  0.54183914     0.15300
H428        H  0.10954830  0.15000731  0.59697913     0.15900
C429        C  0.39437778  0.05558099  0.52306140    -0.13700
C430        C  0.38027113  0.01972118  0.51484956    -0.28900
H431        H  0.38262212  0.08356047  0.52227786     0.15300
H432        H  0.38703823  0.31952831  0.00293509     0.15900
C433        C  0.01987577  0.28465991  0.47592090    -0.13700
C434        C  0.04550571  0.28161224  0.47380457    -0.28900
H435        H  0.01179260  0.26144660  0.97937221     0.15300
H436        H  0.06035126  0.30729340  0.48165295     0.15900
C437        C  0.14180629  0.19537965  0.51343330    -0.13700
C438        C  0.12652203  0.18961635  0.48309137    -0.28900
H439        H  0.13113655  0.20362519  0.52910994     0.15300
H440        H  0.13633662  0.17764132  0.97218404     0.15900
C441        C  0.29122948  0.10231272  0.52452692    -0.13700
C442        C  0.28396908  0.08141864  0.49741398    -0.28900
H443        H  0.31020896  0.09394804  0.54380227     0.15300
H444        H  0.25878516  0.09105960  0.96325371     0.15900
C445        C  0.21437877  0.05383253  0.58155135    -0.13700
C446        C  0.22475908  0.01949439  0.59778433    -0.28900
H447        H  0.21275479  0.05597466  0.55748068     0.15300
H448        H  0.22388869  0.01568578  0.62079176     0.15900
C449        C  0.36477779  0.28284188  0.57370218    -0.13700
C450        C  0.34410824  0.30710879  0.57531438    -0.28900
H451        H  0.35910896  0.25183808  0.56441468     0.15300
H452        H  0.34809165  0.33933586  0.58184795     0.15900
C453        C  0.45662484  0.24616607  0.57052949    -0.13700
C454        C  0.47792871  0.22254458  0.58868303    -0.28900
H455        H  0.44699306  0.23954793  0.54578138     0.15300
H456        H  0.48688926  0.22740837  0.61367511     0.15900
C457        C  0.20453289  0.32582189  0.92087744    -0.13700
C458        C  0.20228522  0.28677174  0.92951453    -0.28900
H459        H  0.21671104  0.34831953  0.93802723     0.15300
H460        H  0.19098386  0.26421115  0.91184079     0.15900
C461        C  0.10448245  0.01199320  0.80750579    -0.13700
C462        C  0.12119774  0.00180131  0.83652735    -0.28900
H463        H  0.11290679  0.01421785  0.78911490     0.15300
H464        H  0.10777072  0.33317565  0.84188336     0.15900
C465        C  0.03844810  0.14224676  0.88959412    -0.13700
C466        C  0.03662047  0.18221506  0.89613409    -0.28900
H467        H  0.05009857  0.12161577  0.90835748     0.15300
H468        H  0.02434316  0.20311037  0.87797597     0.15900
C469        C  0.46766654  0.00531846  0.67001432    -0.13700
C470        C  0.44263247  0.98639272  0.65611420    -0.28900
H471        H  0.48188033  0.00904019  0.65750335     0.15300
H472        H  0.47456156  0.35584101  0.65694461     0.15900
C473        C  0.38042506  0.09603726  0.75749506    -0.13700
C474        C  0.40119170  0.12251396  0.75808281    -0.28900
H475        H  0.38593040  0.06452676  0.76507817     0.15300
H476        H  0.39685311  0.15492301  0.75303567     0.15900
C477        C  0.30093219  0.16378222  0.67594576    -0.13700
C478        C  0.27394418  0.17299318  0.65918845    -0.28900
H479        H  0.31733789  0.17403572  0.66760289     0.15300
H480        H  0.25719430  0.16544217  0.66753294     0.15900
C481        C  0.03200095  0.98052043  0.64877357    -0.13700
C482        C  0.03516845  0.02023581  0.64223723    -0.28900
H483        H  0.01684827  0.96107231  0.63127352     0.15300
H484        H  0.04993738  0.38143443  0.64930707     0.15900
C485        C  0.02969482  0.23319838  0.72852590    -0.13700
C486        C  0.04097425  0.19579820  0.73706499    -0.28900
H487        H  0.00886474  0.24006466  0.72869784     0.15300
H488        H  0.06045277  0.18843067  0.73359033     0.15900
C489        C  0.12052926  0.29653185  0.72965496    -0.13700
C490        C  0.13621792  0.28734909  0.75935954    -0.28900
H491        H  0.13104186  0.30128599  0.71320657     0.15300
H492        H  0.12621634  0.28370410  0.77632680     0.15900
C493        C  0.26467524  0.28230064  0.90483352    -0.13700
C494        C  0.29185924  0.29200860  0.92111599    -0.28900
H495        H  0.24855775  0.28837027  0.91422676     0.15300
H496        H  0.30779281  0.28306208  0.91182218     0.15900
C497        C  0.20255701  0.17733347  0.67703378    -0.13700
C498        C  0.20597365  0.13912863  0.66787067    -0.28900
H499        H  0.19074183  0.19957904  0.65970163     0.15300
H500        H  0.21902518  0.11753070  0.68490712     0.15900
C501        C  0.19784002  0.09738948  0.82251869    -0.13700
C502        C  0.21060489  0.06136396  0.83251998    -0.28900
H503        H  0.17735475  0.10289382  0.82420232     0.15300
H504        H  0.23238348  0.05687816  0.83456255     0.15900
C505        C  0.28748281  0.03290384  0.76780065    -0.13700
C506        C  0.28170789  0.05145916  0.74027814    -0.28900
H507        H  0.30540972  0.04365103  0.78774860     0.15300
H508        H  0.26323158  0.04193591  0.72044327     0.15900
C509        C  0.33966696  0.17154385  0.81602426    -0.13700
C510        C  0.36100374  0.18476143  0.84179218    -0.28900
H511        H  0.34420531  0.15380977  0.79851853     0.15300
H512        H  0.35607242  0.20053781  0.85989554     0.15900
C513        C  0.45986425  0.14809154  0.91039136    -0.13700
C514        C  0.45318969  0.14610974  0.93589236    -0.28900
H515        H  0.48036009  0.13758487  0.91121021     0.15300
H516        H  0.43319741  0.15911130  0.93474686     0.15900
C517        C  0.44211822  0.24819291  0.82236642    -0.13700
C518        C  0.46741232  0.26769270  0.83508772    -0.28900
H519        H  0.42720153  0.25932471  0.80035000     0.15300
H520        H  0.48252531  0.25823993  0.85741872     0.15900
C521        C  0.44287820  0.51628968  0.38203956     0.05900
C522        C  0.41329803  0.51094978  0.37261963    -0.10300
C523        C  0.39476920  0.53213161  0.34683372     0.03400
C524        C  0.40600347  0.55922929  0.33049287    -0.08800
C525        C  0.43530170  0.56664322  0.34042158     0.05900
C526        C  0.45352206  0.54466325  0.36610556    -0.08200
H527        H  0.40443378  0.49165381  0.38595385     0.11500
H528        H  0.39179190  0.57684443  0.31130792     0.09000
H529        H  0.47605014  0.54959686  0.37419433     0.10800
Zn530      Zn  0.27375382  0.60386896  0.31385636     1.49700
Zn531      Zn  0.21526478  0.59834608  0.25649116     1.49400
Zn532      Zn  0.25173036  0.51626240  0.28004775     1.49100
Zn533      Zn  0.22158060  0.56156573  0.32286432     1.49500
O534        O  0.24058227  0.56947913  0.29315970    -1.81400
O535        O  0.27298713  0.65475916  0.28886731    -0.72000
O536        O  0.20480068  0.56241432  0.21833472    -0.71800
O537        O  0.29464745  0.51632928  0.28973586    -0.71300
O538        O  0.23282753  0.65087656  0.24787126    -0.72000
O539        O  0.30910423  0.57362326  0.31789479    -0.71600
O540        O  0.22984896  0.50530265  0.23318658    -0.72200
O541        O  0.21956183  0.50159584  0.33066894    -0.71600
O542        O  0.17862260  0.61149224  0.26145380    -0.72400
O543        O  0.24179635  0.46912245  0.30390489    -0.71700
O544        O  0.18168881  0.58210750  0.30598639    -0.72200
O545        O  0.24138553  0.58992016  0.36440962    -0.72100
O546        O  0.27731810  0.62125367  0.35691332    -0.71900
C547        C  0.25603324  0.66914414  0.26325163     0.79900
C548        C  0.21174101  0.52687305  0.21222251     0.80400
C549        C  0.31434980  0.54066379  0.30625034     0.79300
C550        C  0.22821593  0.46863831  0.32233478     0.79700
C551        C  0.16780433  0.60174371  0.28144340     0.80800
C552        C  0.26333829  0.61286654  0.37412903     0.79900
C553        C  0.04757533  0.65346279  0.19586075     0.05900
C554        C  0.07672579  0.65669658  0.21218646    -0.10300
C555        C  0.09043471  0.63031915  0.23694079     0.03400
C556        C  0.07426536  0.60156414  0.24635794    -0.08800
C557        C  0.04477566  0.59845920  0.23074043     0.05900
C558        C  0.03148294  0.62463576  0.20544464    -0.08200
H559        H  0.08707637  0.35068327  0.20605413     0.11500
H560        H  0.08448415  0.58030883  0.26500239     0.09000
H561        H  0.00895702  0.62165556  0.19277027     0.08800
C562        C  0.30058063  0.48054209  0.21569879     0.05900
C563        C  0.28772584  0.45286067  0.22985597    -0.10300
C564        C  0.30418247  0.42957037  0.25570993     0.03400
C565        C  0.33353263  0.43631361  0.26836054    -0.08800
C566        C  0.34671761  0.46419360  0.25457482     0.05900
C567        C  0.33006478  0.48720581  0.22893671    -0.08200
H568        H  0.26514870  0.44807099  0.21955809     0.11500
H569        H  0.34643858  0.41793669  0.28788944     0.09000
H570        H  0.34033444  0.50822973  0.21807433     0.08800
Zn571      Zn  0.46223321  0.36149125  0.26121623     1.49700
Zn572      Zn  0.02095384  0.39937370  0.25939043     1.49400
Zn573      Zn  0.48262546  0.45215478  0.29135087     1.49100
Zn574      Zn  0.02251777  0.37323615  0.32608260     1.49500
O575        O  0.49484524  0.39764049  0.28122122    -1.81400
O576        O  0.45744749  0.34673157  0.21698946    -0.72000
O577        O  0.03048753  0.45668773  0.25021272    -0.71800
O578        O  0.43959766  0.45229824  0.28122120    -0.71300
O579        O  0.99872191  0.37215536  0.21873544    -0.72000
O580        O  0.42761441  0.38952631  0.26094456    -0.71600
O581        O  0.00869017  0.49946770  0.27141110    -0.72200
O582        O  0.02932245  0.41236220  0.36151868    -0.71600
O583        O  0.05848915  0.37133250  0.27849421    -0.72400
O584        O  0.00963625  0.47179966  0.34104565    -0.71700
O585        O  0.06108757  0.35753397  0.32650895    -0.72200
O586        O  0.00894149  0.65911543  0.32841249    -0.72100
O587        O  0.46248682  0.66679940  0.29573878    -0.71900
C588        C  0.47276310  0.35357310  0.20091545     0.79900
C589        C  0.02441650  0.49297624  0.25574824     0.80400
C590        C  0.42112658  0.42394184  0.26939865     0.79300
C591        C  0.02387571  0.44992179  0.36445912     0.79700
C592        C  0.07211815  0.35835524  0.30579831     0.80800
C593        C  0.47973311  0.65260059  0.32122988     0.79900
C594        C  0.19666637  0.66693605  0.38901297     0.05900
C595        C  0.20792594  0.36951170  0.38243956    -0.10300
C596        C  0.19070230  0.38855936  0.35491293     0.03400
C597        C  0.16225937  0.37674386  0.34096201    -0.08800
C598        C  0.15322466  0.67608565  0.34361634     0.05900
C599        C  0.16749038  0.66006205  0.37345967    -0.08200
H600        H  0.22947978  0.38037381  0.39425892     0.11500
H601        H  0.14883878  0.39406455  0.32111003     0.09000
H602        H  0.15552776  0.64442436  0.38547375     0.08800
C603        C  0.43244883  0.63766014  0.13564771     0.05900
C604        C  0.40425461  0.63755107  0.11495223    -0.10300
C605        C  0.39583385  0.61322384  0.08785940     0.03400
C606        C  0.41611559  0.58999608  0.08135330    -0.08800
C607        C  0.44434122  0.58927006  0.10216319     0.05900
C608        C  0.45217463  0.61270703  0.12936411    -0.08200
H609        H  0.38596631  0.32394148  0.11005893     0.11500
H610        H  0.40936874  0.56984495  0.06119811     0.09000
H611        H  0.47333853  0.61019143  0.14613827     0.08800
Zn612      Zn  0.22959601  0.55312662  0.08061104     1.49700
Zn613      Zn  0.28496793  0.53213434  0.06907157     1.49400
Zn614      Zn  0.22813492  0.52397031  0.01251263     1.49100
Zn615      Zn  0.25229896  0.61443933  0.03990037     1.49500
O616        O  0.24839387  0.55624477  0.05028985    -1.81400
O617        O  0.25266194  0.52292513  0.12061536    -0.72000
O618        O  0.28876617  0.47979759  0.04880353    -0.71800
O619        O  0.18920297  0.51097563  0.01226436    -0.71300
O620        O  0.29339927  0.51847856  0.11332508    -0.72000
O621        O  0.19000168  0.52998767  0.05901324    -0.71600
O622        O  0.23944962  0.47063300  0.49245865    -0.72200
O623        O  0.23492040  0.62153828  0.48388454    -0.71600
O624        O  0.31479867  0.57076967  0.06788305    -0.72400
O625        O  0.21451928  0.56095596  0.46616162    -0.71700
O626        O  0.29381231  0.63085141  0.05235460    -0.72200
O627        O  0.23533905  0.65301892  0.06304785    -0.72100
O628        O  0.22436555  0.61024279  0.09460900    -0.71900
C629        C  0.27893332  0.51436075  0.13046347     0.79900
C630        C  0.27353080  0.45922260  0.02518403     0.80400
C631        C  0.17681979  0.51650293  0.03149179     0.79300
C632        C  0.21959977  0.59834137  0.46168179     0.79700
C633        C  0.31595172  0.60891432  0.06229240     0.80800
C634        C  0.22634301  0.64647713  0.08507972     0.79900
C635        C  0.05219190  0.52507163  0.43389922     0.05900
C636        C  0.07950295  0.51002192  0.45022063    -0.10300
C637        C  0.09747178  0.52895669  0.47765939     0.03400
C638        C  0.09053808  0.55374404  0.98665835    -0.08800
C639        C  0.06067364  0.57915355  0.47312941     0.05900
C640        C  0.04287352  0.55968426  0.44555883    -0.08200
H641        H  0.08759983  0.48484179  0.44065629     0.11500
H642        H  0.10425495  0.56986353  0.00725619     0.09000
H643        H  0.02223006  0.57226966  0.43261039     0.08800
C644        C  0.30977587  0.66359098  0.45130126     0.05900
C645        C  0.29514120  0.34973624  0.45918440    -0.10300
C646        C  0.30851565  0.36658432  0.48935366     0.03400
C647        C  0.32641582  0.37085647  0.00014698    -0.08800
C648        C  0.35277166  0.67281226  0.49660976     0.05900
C649        C  0.33844036  0.65546038  0.46742168    -0.08200
H650        H  0.27356726  0.35738802  0.44531539     0.11500
H651        H  0.33623894  0.39277682  0.01862027     0.09000
H652        H  0.35016450  0.63815409  0.45612809     0.08800
C653        C  0.18859418  0.46023337  0.13690655     0.05900
C654        C  0.20347179  0.43419540  0.12413068    -0.10300
C655        C  0.19094897  0.41983144  0.09338588     0.03400
C656        C  0.16320930  0.43095144  0.07554387    -0.08800
C657        C  0.14707844  0.45439005  0.08830410     0.05900
C658        C  0.16022731  0.47005194  0.11888609    -0.08200
H659        H  0.22495597  0.42552071  0.13799342     0.11500
H660        H  0.15345247  0.41871244  0.05214575     0.09000
H661        H  0.14838681  0.48872445  0.12907944     0.08800
Zn662      Zn  0.45977613  0.45144494  0.01100020     1.49700
Zn663      Zn  0.01767774  0.41741081  0.01037208     1.49400
Zn664      Zn  0.01150336  0.43621230  0.07774605     1.49100
Zn665      Zn  0.47793353  0.36084505  0.02968938     1.49500
O666        O  0.49175907  0.41710443  0.02834568    -1.81400
O667        O  0.45621119  0.43809778  0.46891426    -0.72000
O668        O  0.05613810  0.44344917  0.03753752    -0.71800
O669        O  0.99079548  0.48848460  0.08313790    -0.71300
O670        O  0.98814097  0.44438998  0.44635276    -0.72000
O671        O  0.46484343  0.50598521  0.03102494    -0.71600
O672        O  0.05121864  0.45289054  0.08319743    -0.72200
O673        O  0.00177327  0.33516876  0.08427052    -0.71600
O674        O  0.02575817  0.36052983  0.99685349    -0.72400
O675        O  0.01501102  0.39346953  0.11143928    -0.71700
O676        O  0.00638950  0.63967673  0.01541011    -0.72200
O677        O  0.43507527  0.35944768  0.01926497    -0.72100
O678        O  0.42592447  0.42640600  0.01551848    -0.71900
C679        C  0.47177712  0.44735881  0.45377442     0.79900
C680        C  0.06620356  0.45401593  0.06631112     0.80400
C681        C  0.47468157  0.51448358  0.05976346     0.79300
C682        C  0.01172581  0.35433573  0.11009200     0.79700
C683        C  0.02284055  0.64589726  0.00064619     0.80800
C684        C  0.41819825  0.38936554  0.01646696     0.79900
C685        C  0.11610249  0.45766484  0.06964271    -0.13700
C686        C  0.09652352  0.46504766  0.08217316    -0.28900
H687        H  0.10881820  0.44765490  0.04550595     0.15300
H688        H  0.10309011  0.47340894  0.10652168     0.15900
C689        C  0.38845153  0.38266756  0.01273269    -0.13700
C690        C  0.37505934  0.34628826  0.00476574    -0.28900
H691        H  0.37639788  0.41020620  0.01230966     0.15300
H692        H  0.39537443  0.64647344  0.50603941     0.15900
C693        C  0.03071053  0.60987072  0.98628295    -0.13700
C694        C  0.05517205  0.60796977  0.98159233    -0.28900
H695        H  0.01096135  0.59751161  0.47831072     0.15300
H696        H  0.07036023  0.63325425  0.98919950     0.15900
C697        C  0.14573265  0.51226358  0.02061354    -0.13700
C698        C  0.12998297  0.50543002  0.99043710    -0.28900
H699        H  0.13560652  0.52186758  0.03648348     0.15300
H700        H  0.13592759  0.50243525  0.47443927     0.15900
C701        C  0.28608342  0.42117772  0.01860346    -0.13700
C702        C  0.27885147  0.40347054  0.99039659    -0.28900
H703        H  0.30411128  0.40959463  0.03776117     0.15300
H704        H  0.30807534  0.40692431  0.52749097     0.15900
C705        C  0.20543410  0.39058305  0.07978751    -0.13700
C706        C  0.21770613  0.35658628  0.09512974    -0.28900
H707        H  0.20199759  0.39350287  0.05523697     0.15300
H708        H  0.21856200  0.35171693  0.11873415     0.15900
C709        C  0.36568117  0.60412846  0.06976786    -0.13700
C710        C  0.34411179  0.62776854  0.06968550    -0.28900
H711        H  0.36087206  0.57393075  0.05877164     0.15300
H712        H  0.34762244  0.65920058  0.07831289     0.15900
C713        C  0.46448512  0.55971070  0.09746048    -0.13700
C714        C  0.46442914  0.55269655  0.06889055    -0.28900
H715        H  0.47716088  0.54091796  0.11692840     0.15300
H716        H  0.45206191  0.57271250  0.05004645     0.15900
C717        C  0.21118929  0.65229438  0.42126171    -0.13700
C718        C  0.20625486  0.61439050  0.42981953    -0.28900
H719        H  0.22687808  0.67218617  0.43772323     0.15300
H720        H  0.19166116  0.59395631  0.41259326     0.15900
C721        C  0.10216778  0.34788124  0.31385992    -0.13700
C722        C  0.11938975  0.33984233  0.34323222    -0.28900
H723        H  0.11105890  0.35260075  0.29599912     0.15300
H724        H  0.11170392  0.66587706  0.34758283     0.15900
C725        C  0.03596214  0.46762817  0.39612354    -0.13700
C726        C  0.03477992  0.50768010  0.40290479    -0.28900
H727        H  0.04789459  0.44675797  0.41451450     0.15300
H728        H  0.02199129  0.52856442  0.38511339     0.15900
C729        C  0.46419042  0.33674462  0.16897598    -0.13700
C730        C  0.43793757  0.32217357  0.15328652    -0.28900
H731        H  0.47956242  0.33747157  0.15778271     0.15300
H732        H  0.42453521  0.66370155  0.17591315     0.15900
C733        C  0.37793357  0.46460918  0.26360650    -0.13700
C734        C  0.39125264  0.42866629  0.26559309    -0.28900
H735        H  0.38912421  0.49353283  0.26439512     0.15300
H736        H  0.37884700  0.40028737  0.26161322     0.15900
C737        C  0.28350451  0.49783469  0.18485410    -0.13700
C738        C  0.29411290  0.49926609  0.16218535    -0.28900
H739        H  0.26162169  0.50604474  0.17995903     0.15300
H740        H  0.31554886  0.48878161  0.16701018     0.15900
C741        C  0.03384967  0.34516536  0.16721833    -0.13700
C742        C  0.02028779  0.32940306  0.13870686    -0.28900
H743        H  0.03876489  0.37791124  0.16994420     0.15300
H744        H  0.01883680  0.62701280  0.13848955     0.15900
C745        C  0.02831358  0.56611114  0.23989843    -0.13700
C746        C  0.03781734  0.52723005  0.24483741    -0.28900
H747        H  0.00819393  0.57387151  0.24164037     0.15300
H748        H  0.05667235  0.51958324  0.24014399     0.15900
C749        C  0.12179295  0.62961355  0.24886111    -0.13700
C750        C  0.13788575  0.61087853  0.27522676    -0.28900
H751        H  0.13196841  0.64277269  0.23392030     0.15300
H752        H  0.12870433  0.59914019  0.29144497     0.15900
C753        C  0.27304125  0.62938258  0.40624539    -0.13700
C754        C  0.29752019  0.65039018  0.41842295    -0.28900
H755        H  0.26091575  0.62224557  0.42067473     0.15300
H756        H  0.31065920  0.65480694  0.40461868     0.15900
C757        C  0.19764054  0.51141226  0.17985583    -0.13700
C758        C  0.20281262  0.47464090  0.16972652    -0.28900
H759        H  0.18250084  0.53173154  0.16359166     0.15300
H760        H  0.21883985  0.45510665  0.18556130     0.15900
C761        C  0.22157634  0.42903757  0.33405107    -0.13700
C762        C  0.19993521  0.42674452  0.34415614    -0.28900
H763        H  0.23328999  0.40161339  0.33306481     0.15300
H764        H  0.18691324  0.45361910  0.34262494     0.15900
C765        C  0.26841912  0.37420958  0.25129833    -0.13700
C766        C  0.29228950  0.39478218  0.26812174    -0.28900
H767        H  0.25526809  0.38453255  0.22828167     0.15300
H768        H  0.30525137  0.38290156  0.29081409     0.15900
C769        C  0.34415951  0.53208641  0.31133831    -0.13700
C770        C  0.36384637  0.53062453  0.34023197    -0.28900
H771        H  0.35035346  0.53086058  0.29127422     0.15300
H772        H  0.35704011  0.52988474  0.35997007     0.15900
C773        C  0.46295948  0.49624506  0.41051103    -0.13700
C774        C  0.45700175  0.46044973  0.42138580    -0.28900
H775        H  0.48230732  0.51269691  0.42395236     0.15300
H776        H  0.43758054  0.44396448  0.40830814     0.15900
C777        C  0.44568918  0.59911720  0.32425709    -0.13700
C778        C  0.47147591  0.61717158  0.33623245    -0.28900
H779        H  0.43073173  0.61049775  0.30235121     0.15300
H780        H  0.48665253  0.60779306  0.35854070     0.15900
C781        C  0.44297285  0.50382066  0.86416546     0.05900
C782        C  0.41294884  0.50201629  0.85079684    -0.10300
C783        C  0.39821750  0.52552781  0.82423756     0.03400
C784        C  0.41353872  0.54923923  0.81044721    -0.08800
C785        C  0.44301956  0.55181591  0.82330385     0.05900
C786        C  0.45761815  0.52853051  0.84984807    -0.08200
H787        H  0.40101728  0.48435728  0.86177254     0.11500
H788        H  0.40217608  0.56834163  0.79062022     0.09000
H789        H  0.48029457  0.53096388  0.86006628     0.10800
Zn790      Zn  0.28424330  0.59843489  0.81159289     1.49700
Zn791      Zn  0.22324200  0.60065040  0.76016977     1.49400
Zn792      Zn  0.25307252  0.51234702  0.78260833     1.49100
Zn793      Zn  0.23236007  0.56907716  0.82859266     1.49500
O794        O  0.24821066  0.56942279  0.79560030    -1.81400
O795        O  0.28476102  0.64881835  0.78653559    -0.72000
O796        O  0.21175342  0.56656388  0.72134792    -0.71800
O797        O  0.29574536  0.50011424  0.79390897    -0.71300
O798        O  0.24110305  0.65278318  0.75170225    -0.72000
O799        O  0.31525359  0.56102662  0.81201986    -0.71600
O800        O  0.23105379  0.50491199  0.73503059    -0.72200
O801        O  0.23000690  0.51092512  0.84190770    -0.71600
O802        O  0.18733977  0.61473730  0.76613204    -0.72400
O803        O  0.23796505  0.47097815  0.80676779    -0.71700
O804        O  0.19230979  0.59062988  0.81282976    -0.72200
O805        O  0.25608413  0.60143066  0.86707308    -0.72100
O806        O  0.29354494  0.61783099  0.85539477    -0.71900
C807        C  0.26613744  0.66708321  0.76400206     0.79900
C808        C  0.21572392  0.52989269  0.71438405     0.80400
C809        C  0.31753576  0.52352441  0.80533356     0.79300
C810        C  0.23112844  0.47556610  0.83060962     0.79700
C811        C  0.17752105  0.60781604  0.78739122     0.80800
C812        C  0.28055809  0.61778429  0.87424293     0.79900
C813        C  0.05717530  0.65101273  0.69821402     0.05900
C814        C  0.08536875  0.65901212  0.71728780    -0.10300
C815        C  0.10016113  0.63171913  0.74101517     0.03400
C816        C  0.08588897  0.59704055  0.74650690    -0.08800
C817        C  0.05737261  0.58951902  0.72843958     0.05900
C818        C  0.04296936  0.61649404  0.70421468    -0.08200
H819        H  0.08609310  0.33106685  0.67673951     0.11500
H820        H  0.09721302  0.57426682  0.76348476     0.09000
H821        H  0.02131753  0.60961815  0.68932741     0.08800
C822        C  0.29970017  0.46388339  0.70084244     0.05900
C823        C  0.28231719  0.43814627  0.71059120    -0.10300
C824        C  0.29363805  0.41272963  0.73644233     0.03400
C825        C  0.32301664  0.41371087  0.75301455    -0.08800
C826        C  0.34096712  0.43946545  0.74395910     0.05900
C827        C  0.32918444  0.46490699  0.71775433    -0.08200
H828        H  0.26002522  0.43589697  0.69672700     0.11500
H829        H  0.33250758  0.39236237  0.77184972     0.09000
H830        H  0.34284696  0.48359820  0.70962385     0.08800
Zn831      Zn  0.45812922  0.37081063  0.77178404     1.49700
Zn832      Zn  0.01882474  0.41311405  0.74987233     1.49400
Zn833      Zn  0.48651715  0.45816033  0.79860116     1.49100
Zn834      Zn  0.02298887  0.37494336  0.81507433     1.49500
O835        O  0.49364305  0.40164307  0.78710527    -1.81400
O836        O  0.44969672  0.35142803  0.72868032    -0.72000
O837        O  0.02311506  0.47369947  0.74307037    -0.71800
O838        O  0.44350520  0.46954433  0.78380826    -0.71300
O839        O  0.99806604  0.38600609  0.70814472    -0.72000
O840        O  0.42604141  0.40694322  0.76843397    -0.71600
O841        O  0.00113240  0.50573268  0.77021247    -0.72200
O842        O  0.03119851  0.40941279  0.85347262    -0.71600
O843        O  0.05849345  0.39011547  0.76732155    -0.72400
O844        O  0.00735670  0.46756398  0.83786816    -0.71700
O845        O  0.06082595  0.36285333  0.81225182    -0.72200
O846        O  0.01002350  0.65092209  0.83267733    -0.72100
O847        O  0.47142265  0.65747069  0.78846766    -0.71900
C848        C  0.46087130  0.35629870  0.70844115     0.79900
C849        C  0.01534859  0.50665055  0.75249248     0.80400
C850        C  0.42245280  0.44484968  0.77248732     0.79300
C851        C  0.02431057  0.44515656  0.85922783     0.79700
C852        C  0.07213132  0.37137168  0.79246662     0.80800
C853        C  0.48830556  0.64251665  0.81388976     0.79900
C854        C  0.19803813  0.67039429  0.89983125     0.05900
C855        C  0.20752614  0.36319085  0.87471213    -0.10300
C856        C  0.19501758  0.37756513  0.84398569     0.03400
C857        C  0.16644434  0.36840162  0.82691011    -0.08800
C858        C  0.15633211  0.68018438  0.85267662     0.05900
C859        C  0.17007845  0.66005804  0.88109014    -0.08200
H860        H  0.22939510  0.37090342  0.88830005     0.11500
H861        H  0.15698011  0.38135377  0.80392529     0.09000
H862        H  0.15824734  0.63878381  0.88992505     0.08800
C863        C  0.43527218  0.63271673  0.62931271     0.05900
C864        C  0.40675839  0.62999491  0.60937868    -0.10300
C865        C  0.39862731  0.60417616  0.58300927     0.03400
C866        C  0.41929781  0.58194144  0.57656513    -0.08800
C867        C  0.44776591  0.58400030  0.59649903     0.05900
C868        C  0.45545652  0.60887901  0.62291405    -0.08200
H869        H  0.39646681  0.33414628  0.62185587     0.11500
H870        H  0.41278650  0.56060176  0.55711991     0.09000
H871        H  0.47701371  0.60818509  0.63911313     0.08800
Zn872      Zn  0.23341138  0.55270111  0.57334248     1.49700
Zn873      Zn  0.28409517  0.52243102  0.55408612     1.49400
Zn874      Zn  0.22349413  0.52389996  0.50311790     1.49100
Zn875      Zn  0.25455191  0.61050307  0.53024573     1.49500
O876        O  0.24889292  0.55254985  0.54015405    -1.81400
O877        O  0.25727924  0.51929393  0.61079989    -0.72000
O878        O  0.28335666  0.47289275  0.52701118    -0.71800
O879        O  0.18596506  0.51528995  0.50733138    -0.71300
O880        O  0.29393173  0.50249715  0.59795955    -0.72000
O881        O  0.19201615  0.53542917  0.55547769    -0.71600
O882        O  0.24894221  0.47139911  0.00800598    -0.72200
O883        O  0.23305080  0.62289601  0.99333129    -0.71600
O884        O  0.31546933  0.56077052  0.55558842    -0.72400
O885        O  0.22090232  0.55946494  0.97447462    -0.71700
O886        O  0.29657452  0.62301604  0.54366000    -0.72200
O887        O  0.23917588  0.65072116  0.55390601    -0.72100
O888        O  0.23259568  0.61019802  0.58945447    -0.71900
C889        C  0.28160122  0.50318207  0.61744990     0.79900
C890        C  0.26424710  0.45568542  0.50387970     0.80400
C891        C  0.17612480  0.52327762  0.52841291     0.79300
C892        C  0.22242829  0.59809605  0.97045485     0.79700
C893        C  0.31795670  0.59948866  0.55273018     0.80800
C894        C  0.23307797  0.64574795  0.57812006     0.79900
C895        C  0.05569370  0.51617915  0.93085346     0.05900
C896        C  0.08254337  0.50002459  0.94793111    -0.10300
C897        C  0.10008784  0.51855600  0.97588509     0.03400
C898        C  0.08790312  0.56369703  0.48893205    -0.08800
C899        C  0.06378004  0.56981843  0.97017431     0.05900
C900        C  0.04636448  0.55092665  0.94229608    -0.08200
H901        H  0.09055415  0.47448316  0.93862803     0.11500
H902        H  0.10193184  0.57995578  0.50927020     0.09000
H903        H  0.02601878  0.56414836  0.92894627     0.08800
C904        C  0.30013024  0.65804411  0.95798696     0.05900
C905        C  0.28506325  0.34454828  0.95835386    -0.10300
C906        C  0.29688781  0.37150756  0.98372467     0.03400
C907        C  0.33700921  0.35694487  0.50611170    -0.08800
C908        C  0.34537874  0.67090549  0.99979994     0.05900
C909        C  0.32921230  0.65024542  0.97247509    -0.08200
H910        H  0.26301611  0.34725686  0.94401795     0.11500
H911        H  0.34739559  0.36975036  0.52917847     0.09000
H912        H  0.33966673  0.62991541  0.96158994     0.08800
C913        C  0.18882799  0.46898480  0.63657409     0.05900
C914        C  0.20256102  0.44285759  0.62262780    -0.10300
C915        C  0.18906866  0.42963868  0.59167841     0.03400
C916        C  0.16142939  0.44258285  0.57459634    -0.08800
C917        C  0.14666318  0.46742107  0.58848350     0.05900
C918        C  0.16092344  0.48125341  0.61930707    -0.08200
H919        H  0.22377497  0.43253292  0.63599227     0.11500
H920        H  0.15101825  0.43044112  0.55136814     0.09000
H921        H  0.14965863  0.49955731  0.63053109     0.08800
Zn922      Zn  0.46655565  0.43662646  0.51444737     1.49700
Zn923      Zn  0.01356906  0.41763800  0.48859350     1.49400
Zn924      Zn  0.01831213  0.44989237  0.55708839     1.49100
Zn925      Zn  0.48988660  0.35150694  0.53949370     1.49500
O926        O  0.50059631  0.40830638  0.53455779    -1.81400
O927        O  0.45045534  0.46139854  0.96643138    -0.72000
O928        O  0.05377019  0.44235710  0.50788102    -0.71800
O929        O  0.99903812  0.50275702  0.56296589    -0.71300
O930        O  0.99566236  0.44883681  0.96912808    -0.72000
O931        O  0.46864718  0.49391662  0.52931719    -0.71600
O932        O  0.05647339  0.46260782  0.55501147    -0.72200
O933        O  0.00820565  0.35273703  0.57751734    -0.71600
O934        O  0.01905888  0.35761491  0.47992169    -0.72400
O935        O  0.02679503  0.41432280  0.59518719    -0.71700
O936        O  0.00350150  0.65282144  0.51655111    -0.72200
O937        O  0.44669289  0.34438377  0.52759581    -0.72100
O938        O  0.43492736  0.41037566  0.52265584    -0.71900
C939        C  0.46486115  0.46336790  0.94914695     0.79900
C940        C  0.06788462  0.45695793  0.53493008     0.80400
C941        C  0.47905363  0.50706913  0.55706162     0.79300
C942        C  0.02254334  0.37659930  0.59982721     0.79700
C943        C  0.01951306  0.65853106  0.50118091     0.80800
C944        C  0.42872772  0.37287079  0.52460290     0.79900
C945        C  0.11537721  0.47387673  0.57385575    -0.13700
C946        C  0.09892902  0.46343119  0.54432651    -0.28900
H947        H  0.10498927  0.48394859  0.58938851     0.15300
H948        H  0.10836151  0.45437818  0.52776369     0.15900
C949        C  0.39948685  0.36436204  0.52209613    -0.13700
C950        C  0.38426256  0.33198864  0.50646983    -0.28900
H951        H  0.38872274  0.39026949  0.52746526     0.15300
H952        H  0.38700289  0.64243960  0.00709356     0.15900
C953        C  0.02641608  0.62246064  0.48588034    -0.13700
C954        C  0.05225200  0.61752534  0.48477671    -0.28900
H955        H  0.01690182  0.58288501  0.98146354     0.15300
H956        H  0.06852751  0.64070922  0.49543784     0.15900
C957        C  0.14512315  0.52339928  0.52012073    -0.13700
C958        C  0.12748330  0.51593876  0.49071466    -0.28900
H959        H  0.13698686  0.53534363  0.53710532     0.15300
H960        H  0.14008123  0.49424338  0.97493039     0.15900
C961        C  0.27141988  0.41870626  0.48920074    -0.13700
C962        C  0.29549606  0.39782025  0.50375257    -0.28900
H963        H  0.25772180  0.41065881  0.46570528     0.15300
H964        H  0.26024805  0.41407946  0.97142313     0.15900
C965        C  0.20241716  0.39883207  0.57780698    -0.13700
C966        C  0.21410850  0.36479588  0.59362490    -0.28900
H967        H  0.19930295  0.40128835  0.55331898     0.15300
H968        H  0.21426937  0.36058104  0.61703172     0.15900
C969        C  0.36870453  0.59323994  0.56523784    -0.13700
C970        C  0.34667655  0.61741697  0.56251450    -0.28900
H971        H  0.36454572  0.56226216  0.55555430     0.15300
H972        H  0.34994398  0.64933355  0.57005767     0.15900
C973        C  0.46864845  0.55565381  0.59220467    -0.13700
C974        C  0.46739867  0.54551261  0.56366396    -0.28900
H975        H  0.48312016  0.53995264  0.61247042     0.15300
H976        H  0.45329352  0.56230981  0.54376155     0.15900
C977        C  0.21064988  0.65432719  0.93185309    -0.13700
C978        C  0.21082505  0.61399911  0.93829429    -0.28900
H979        H  0.21983564  0.67642316  0.95051355     0.15300
H980        H  0.20183464  0.59204751  0.91939183     0.15900
C981        C  0.10233018  0.36207429  0.79963933    -0.13700
C982        C  0.11836621  0.34496699  0.82691932    -0.28900
H983        H  0.11165949  0.37331400  0.78345444     0.15300
H984        H  0.11426362  0.66365294  0.85312116     0.15900
C985        C  0.03756061  0.46043942  0.89156710    -0.13700
C986        C  0.03881604  0.50052057  0.89922021    -0.28900
H987        H  0.04838398  0.43813356  0.90936072     0.15300
H988        H  0.02836961  0.52302234  0.88152319     0.15900
C989        C  0.44533945  0.33868070  0.67742928    -0.13700
C990        C  0.45421685  0.34146284  0.65354902    -0.28900
H991        H  0.42585147  0.32195131  0.67439754     0.15300
H992        H  0.42813941  0.65941204  0.66994138     0.15900
C993        C  0.37182848  0.43214845  0.75889751    -0.13700
C994        C  0.39284312  0.45961331  0.76225196    -0.28900
H995        H  0.37760852  0.40103751  0.76741145     0.15300
H996        H  0.38822276  0.49169201  0.75606849     0.15900
C997        C  0.28623139  0.48639615  0.67132758    -0.13700
C998        C  0.29654314  0.48513748  0.64844583    -0.28900
H999        H  0.26560428  0.49981580  0.66689539     0.15300
H1000       H  0.31645201  0.46974747  0.65238178     0.15900
C1001       C  0.03032683  0.32309705  0.64073449    -0.13700
C1002       C  0.03551196  0.36090238  0.63202822    -0.28900
H1003       H  0.01513507  0.30303447  0.62390894     0.15300
H1004       H  0.02681576  0.62785548  0.63967374     0.15900
C1005       C  0.04467784  0.54983390  0.73224717    -0.13700
C1006       C  0.02386074  0.54700541  0.74358624    -0.28900
H1007       H  0.05529168  0.52216177  0.72930315     0.15300
H1008       H  0.01476056  0.57486462  0.74881825     0.15900
C1009       C  0.13142683  0.63553475  0.75489924    -0.13700
C1010       C  0.14750887  0.61654632  0.78121643    -0.28900
H1011       H  0.14171433  0.65105367  0.74095807     0.15300
H1012       H  0.13797057  0.60298459  0.79656594     0.15900
C1013       C  0.29516873  0.63656490  0.90509195    -0.13700
C1014       C  0.28367325  0.64013016  0.92696917    -0.28900
H1015       H  0.31654657  0.64799918  0.90991989     0.15300
H1016       H  0.26171537  0.63138235  0.92165013     0.15900
C1017       C  0.20151265  0.51754970  0.68127546    -0.13700
C1018       C  0.20314876  0.47992095  0.67007881    -0.28900
H1019       H  0.18926639  0.54091341  0.66530139     0.15300
H1020       H  0.21585263  0.45674647  0.68566794     0.15900
C1021       C  0.22346846  0.43990926  0.84588815    -0.13700
C1022       C  0.21014784  0.40627372  0.83021709    -0.28900
H1023       H  0.22483207  0.44424648  0.86972718     0.15300
H1024       H  0.20595003  0.40395258  0.80545594     0.15900
C1025       C  0.28177115  0.36259296  0.77036312    -0.13700
C1026       C  0.27494232  0.38135021  0.74278334    -0.28900
H1027       H  0.30012608  0.37288850  0.78996253     0.15300
H1028       H  0.25587445  0.37178881  0.72368334     0.15900
C1029       C  0.34653778  0.50760531  0.81193522    -0.13700
C1030       C  0.36760123  0.53454946  0.81435857    -0.28900
H1031       H  0.35067769  0.47488243  0.81536355     0.15300
H1032       H  0.36209085  0.56652980  0.80833538     0.15900
C1033       C  0.45961564  0.48344573  0.89441517    -0.13700
C1034       C  0.44939223  0.47930975  0.91728413    -0.28900
H1035       H  0.48132137  0.47499050  0.89893318     0.15300
H1036       H  0.42805160  0.48971563  0.91301827     0.15900
C1037       C  0.45699932  0.58253210  0.80969220    -0.13700
C1038       C  0.48010535  0.60464709  0.82651126    -0.28900
H1039       H  0.44545736  0.59140880  0.78571890     0.15300
H1040       H  0.49178996  0.59720048  0.85070413     0.15900
C1041       C  0.44555808  0.83612533  0.37697258     0.05900
C1042       C  0.41622795  0.83332214  0.37051121    -0.10300
C1043       C  0.39676930  0.85326057  0.34469207     0.03400
C1044       C  0.40686821  0.87734233  0.32560727    -0.08800
C1045       C  0.43611905  0.88246648  0.33256142     0.05900
C1046       C  0.45520408  0.85998514  0.35747027    -0.08200
H1047       H  0.40850129  0.81609517  0.38593888     0.11500
H1048       H  0.39198636  0.89489492  0.30688245     0.09000
H1049       H  0.47760717  0.86249781  0.36283867     0.10800
Zn1050     Zn  0.27917333  0.92626932  0.32235819     1.49700
Zn1051     Zn  0.22339748  0.93385830  0.25910521     1.49400
Zn1052     Zn  0.25124583  0.84583990  0.28364526     1.49100
Zn1053     Zn  0.22109260  0.89980489  0.32302181     1.49500
O1054       O  0.24340427  0.90114793  0.29642297    -1.81400
O1055       O  0.28440448  0.97806571  0.30246321    -0.72000
O1056       O  0.21443838  0.89872237  0.21981078    -0.71800
O1057       O  0.29413005  0.83961554  0.29294828    -0.71300
O1058       O  0.24760007  0.98424717  0.25784508    -0.72000
O1059       O  0.31246252  0.89154258  0.32571402    -0.71600
O1060       O  0.22958723  0.83599137  0.23680812    -0.72200
O1061       O  0.21924132  0.84150350  0.33540467    -0.71600
O1062       O  0.18445892  0.95093529  0.25826660    -0.72400
O1063       O  0.23844651  0.80290934  0.30839848    -0.71700
O1064       O  0.18172244  0.92072713  0.30031651    -0.72200
O1065       O  0.23791489  0.93218012  0.36341417    -0.72100
O1066       O  0.28171836  0.94169803  0.36539180    -0.71900
C1067       C  0.27133576  0.99712092  0.27739877     0.79900
C1068       C  0.21672803  0.86056808  0.21462093     0.80400
C1069       C  0.31550841  0.85971177  0.31128912     0.79300
C1070       C  0.22649330  0.80672950  0.32827067     0.79700
C1071       C  0.17050383  0.94112535  0.27535589     0.80800
C1072       C  0.26318721  0.94458111  0.37775653     0.79900
C1073       C  0.05083683  0.96916038  0.17550071     0.05900
C1074       C  0.07902893  0.97980198  0.19365190    -0.10300
C1075       C  0.09315921  0.96038314  0.22235827     0.03400
C1076       C  0.07791916  0.93196615  0.23351908    -0.08800
C1077       C  0.04992922  0.92103963  0.21534196     0.05900
C1078       C  0.03681585  0.93905336  0.18625280    -0.08200
H1079       H  0.08910093  0.67820370  0.20423766     0.11500
H1080       H  0.08828077  0.91502117  0.25471460     0.09000
H1081       H  0.01571125  0.92903547  0.17181852     0.08800
C1082       C  0.30158188  0.80531863  0.21098299     0.05900
C1083       C  0.28721168  0.78150966  0.22607691    -0.10300
C1084       C  0.30226319  0.75628701  0.25130317     0.03400
C1085       C  0.33178797  0.75605667  0.26191760    -0.08800
C1086       C  0.34656517  0.77992905  0.24764838     0.05900
C1087       C  0.33152302  0.80521303  0.22249823    -0.08200
H1088       H  0.26440173  0.78143047  0.21740488     0.11500
H1089       H  0.34344111  0.73555191  0.28067531     0.09000
H1090       H  0.34303730  0.82292772  0.21103983     0.08800
Zn1091     Zn  0.46477502  0.71474856  0.26893791     1.49700
Zn1092     Zn  0.02326581  0.74977479  0.25719481     1.49400
Zn1093     Zn  0.49042289  0.80363503  0.29678664     1.49100
Zn1094     Zn  0.02788071  0.71223006  0.32314506     1.49500
O1095       O  0.49948367  0.74698930  0.28751153    -1.81400
O1096       O  0.46034505  0.69325269  0.22662397    -0.72000
O1097       O  0.02837100  0.80961288  0.24958148    -0.71800
O1098       O  0.44757264  0.81194702  0.28248135    -0.71300
O1099       O  0.00145074  0.72271906  0.21581617    -0.72000
O1100       O  0.43151866  0.74995046  0.26339490    -0.71600
O1101       O  0.01258586  0.84404841  0.28155771    -0.72200
O1102       O  0.03667796  0.74525342  0.36249042    -0.71600
O1103       O  0.06211595  0.72466406  0.27397954    -0.72400
O1104       O  0.01510357  0.80517031  0.34758754    -0.71700
O1105       O  0.06502606  0.69824414  0.31943319    -0.72200
O1106       O  0.01203362  0.98560382  0.32806338    -0.72100
O1107       O  0.46071649  0.98798449  0.28940157    -0.71900
C1108       C  0.47514636  0.69757346  0.20974347     0.79900
C1109       C  0.02413077  0.84324715  0.26129773     0.80400
C1110       C  0.42713874  0.78689950  0.26943424     0.79300
C1111       C  0.03059429  0.78123944  0.36877610     0.79700
C1112       C  0.07574704  0.70555259  0.29894814     0.80800
C1113       C  0.47857443  0.97161637  0.31362320     0.79900
C1114       C  0.19551548  0.00507722  0.39487581     0.05900
C1115       C  0.21161801  0.69038902  0.37455520    -0.10300
C1116       C  0.19799549  0.70464341  0.34408455     0.03400
C1117       C  0.16909413  0.69662161  0.32847924    -0.08800
C1118       C  0.15510121  0.01422398  0.34617176     0.05900
C1119       C  0.16764243  0.99521892  0.37536193    -0.08200
H1120       H  0.23374525  0.69788274  0.38702143     0.11500
H1121       H  0.15901391  0.70982428  0.30568406     0.09000
H1122       H  0.15493651  0.97523774  0.38396885     0.08800
C1123       C  0.43405420  0.96597578  0.13175771     0.05900
C1124       C  0.40556214  0.96442032  0.11174783    -0.10300
C1125       C  0.39670934  0.93816663  0.08572040     0.03400
C1126       C  0.41688524  0.91450354  0.07938390    -0.08800
C1127       C  0.44552321  0.91566502  0.09919149     0.05900
C1128       C  0.45387517  0.94102558  0.12554215    -0.08200
H1129       H  0.38878048  0.65449918  0.12106503     0.11500
H1130       H  0.40982528  0.89278563  0.06019337     0.09000
H1131       H  0.47546993  0.93969004  0.14189180     0.08800
Zn1132     Zn  0.22922001  0.89449179  0.08132161     1.49700
Zn1133     Zn  0.28064562  0.86314610  0.06316369     1.49400
Zn1134     Zn  0.21999989  0.86316987  0.01233150     1.49100
Zn1135     Zn  0.25249078  0.94945187  0.03651233     1.49500
O1136       O  0.24550297  0.89303228  0.04851235    -1.81400
O1137       O  0.25371255  0.86319185  0.12066633    -0.72000
O1138       O  0.27941268  0.81231104  0.03784699    -0.71800
O1139       O  0.18251430  0.85400445  0.01604810    -0.71300
O1140       O  0.28974101  0.84530103  0.10702409    -0.72000
O1141       O  0.18789863  0.87410283  0.06390694    -0.71600
O1142       O  0.24007834  0.80826669  0.49981074    -0.72200
O1143       O  0.23228776  0.95804178  0.48891589    -0.71600
O1144       O  0.31287192  0.89896903  0.06318052    -0.72400
O1145       O  0.21280076  0.89690011  0.47173257    -0.71700
O1146       O  0.29486049  0.96121754  0.04937613    -0.72200
O1147       O  0.23654610  0.99130724  0.05816932    -0.72100
O1148       O  0.22680596  0.95375818  0.09348087    -0.71900
C1149       C  0.27787408  0.84657423  0.12690600     0.79900
C1150       C  0.26005285  0.79438757  0.01544041     0.80400
C1151       C  0.17238950  0.86056153  0.03704844     0.79300
C1152       C  0.21714338  0.93448444  0.46689571     0.79700
C1153       C  0.31593644  0.93709546  0.05868704     0.80800
C1154       C  0.22838846  0.98833591  0.08114249     0.79900
C1155       C  0.05655651  0.84822386  0.44303815     0.05900
C1156       C  0.08319269  0.83276806  0.46112497    -0.10300
C1157       C  0.09962294  0.85139006  0.48940735     0.03400
C1158       C  0.07968121  0.88070916  0.99695186    -0.08800
C1159       C  0.06160790  0.90031737  0.48282018     0.05900
C1160       C  0.04564457  0.88168725  0.45419490    -0.08200
H1161       H  0.09233792  0.80847713  0.45186163     0.11500
H1162       H  0.08982007  0.89302474  0.02017212     0.09000
H1163       H  0.02556200  0.89470129  0.43976376     0.08800
C1164       C  0.30776144  0.99528369  0.45647246     0.05900
C1165       C  0.29510124  0.68914270  0.46491220    -0.10300
C1166       C  0.30931713  0.70630409  0.49481024     0.03400
C1167       C  0.33196421  0.69703142  0.01413192    -0.08800
C1168       C  0.34879276  0.01847169  0.50059418     0.05900
C1169       C  0.33644417  0.99237739  0.47512386    -0.08200
H1170       H  0.27355559  0.69736349  0.45141990     0.11500
H1171       H  0.34455624  0.71291291  0.03541185     0.09000
H1172       H  0.34982803  0.97177667  0.46826977     0.08800
C1173       C  0.19169302  0.79089928  0.14062734     0.05900
C1174       C  0.20688013  0.76334748  0.12926783    -0.10300
C1175       C  0.19514655  0.74816084  0.09866714     0.03400
C1176       C  0.16780169  0.75952024  0.07971091    -0.08800
C1177       C  0.15121395  0.78392315  0.09123611     0.05900
C1178       C  0.16367168  0.80092148  0.12151128    -0.08200
H1179       H  0.22796571  0.75413545  0.14408648     0.11500
H1180       H  0.15858421  0.74645825  0.05651447     0.09000
H1181       H  0.15149568  0.82058350  0.13068537     0.08800
Zn1182     Zn  0.46345176  0.77005391  0.01312095     1.49700
Zn1183     Zn  0.02380680  0.73963527  0.01012860     1.49400
Zn1184     Zn  0.01373765  0.76178758  0.07418207     1.49100
Zn1185     Zn  0.48053989  0.68166224  0.03930339     1.49500
O1186       O  0.49493595  0.73669801  0.03526225    -1.81400
O1187       O  0.46460413  0.80205708  0.48141527    -0.72000
O1188       O  0.06158658  0.76649306  0.03837413    -0.71800
O1189       O  0.99153393  0.81423084  0.07450875    -0.71300
O1190       O  0.00458197  0.78789159  0.47628183    -0.72000
O1191       O  0.46715448  0.82639757  0.03067881    -0.71600
O1192       O  0.05391696  0.77889380  0.08212226    -0.72200
O1193       O  0.00600800  0.66131953  0.08482831    -0.71600
O1194       O  0.03207784  0.68189132  0.99782947    -0.72400
O1195       O  0.01601304  0.72190142  0.10931683    -0.71700
O1196       O  0.01023889  0.99034810  0.01210929    -0.72200
O1197       O  0.43776628  0.68059623  0.02747426    -0.72100
O1198       O  0.42865021  0.74675695  0.01654086    -0.71900
C1199       C  0.47771655  0.80188229  0.46279742     0.79900
C1200       C  0.07018237  0.77892747  0.06669562     0.80400
C1201       C  0.47560504  0.83685460  0.05910655     0.79300
C1202       C  0.01412975  0.68261947  0.10974774     0.79700
C1203       C  0.02185082  0.99817411  0.99238079     0.80800
C1204       C  0.42081620  0.71083645  0.02084892     0.79900
C1205       C  0.12042398  0.78646770  0.07175501    -0.13700
C1206       C  0.10018059  0.79099639  0.08374595    -0.28900
H1207       H  0.11396457  0.77762391  0.04742899     0.15300
H1208       H  0.10609840  0.79816750  0.10825735     0.15900
C1209       C  0.39116420  0.70586349  0.01757143    -0.13700
C1210       C  0.37661561  0.67024339  0.01022696    -0.28900
H1211       H  0.37995814  0.73421782  0.01750920     0.15300
H1212       H  0.39183905  0.99237244  0.51328714     0.15900
C1213       C  0.03181105  0.96425324  0.97772899    -0.13700
C1214       C  0.03983074  0.92770100  0.99161452    -0.28900
H1215       H  0.01034847  0.92156199  0.48406336     0.15300
H1216       H  0.03956390  0.92261439  0.01475354     0.15900
C1217       C  0.14137487  0.85638572  0.02877603    -0.13700
C1218       C  0.12451735  0.84338286  0.00013027    -0.28900
H1219       H  0.13248635  0.86907413  0.04484093     0.15300
H1220       H  0.13881452  0.82589382  0.48752671     0.15900
C1221       C  0.26661787  0.75647606  0.00176543    -0.13700
C1222       C  0.29161370  0.73760653  0.01516355    -0.28900
H1223       H  0.25147263  0.74613474  0.97957265     0.15300
H1224       H  0.31140081  0.75015137  0.53191083     0.15900
C1225       C  0.20997974  0.71778629  0.08637792    -0.13700
C1226       C  0.21744204  0.68105092  0.10009936    -0.28900
H1227       H  0.21048458  0.72286775  0.06333682     0.15300
H1228       H  0.21427875  0.67486011  0.12173596     0.15900
C1229       C  0.36636231  0.92815674  0.06886757    -0.13700
C1230       C  0.34494531  0.95364635  0.06646631    -0.28900
H1231       H  0.36138157  0.89677213  0.06023960     0.15300
H1232       H  0.34901865  0.98593958  0.07275268     0.15900
C1233       C  0.46568671  0.88587786  0.09480450    -0.13700
C1234       C  0.46421282  0.87542435  0.06619203    -0.28900
H1235       H  0.47990922  0.86981152  0.11501957     0.15300
H1236       H  0.45057735  0.89292732  0.04641769     0.15900
C1237       C  0.20782726  0.98935126  0.42719896    -0.13700
C1238       C  0.20381584  0.95049644  0.43486579    -0.28900
H1239       H  0.22192280  0.00972760  0.44484726     0.15300
H1240       H  0.19077188  0.92942275  0.41698346     0.15900
C1241       C  0.10531686  0.69420212  0.30486803    -0.13700
C1242       C  0.12169417  0.67652098  0.33172337    -0.28900
H1243       H  0.11400668  0.70428861  0.28785475     0.15300
H1244       H  0.11248649  0.99558561  0.34365857     0.15900
C1245       C  0.04239077  0.79480419  0.40162651    -0.13700
C1246       C  0.04240194  0.83427361  0.41042327    -0.28900
H1247       H  0.05217204  0.77159677  0.41908718     0.15300
H1248       H  0.03333974  0.85774618  0.39313846     0.15900
C1249       C  0.46609681  0.67761537  0.17906476    -0.13700
C1250       C  0.44033690  0.66051409  0.16534534    -0.28900
H1251       H  0.48102609  0.67719641  0.16730537     0.15300
H1252       H  0.42557392  0.99388582  0.17095686     0.15900
C1253       C  0.37698115  0.77151405  0.25623197    -0.13700
C1254       C  0.39745071  0.80018620  0.26099138    -0.28900
H1255       H  0.38289833  0.73935119  0.26042318     0.15300
H1256       H  0.39246765  0.83274395  0.25942087     0.15900
C1257       C  0.28482430  0.82689495  0.18164499    -0.13700
C1258       C  0.29362447  0.82809081  0.15753665    -0.28900
H1259       H  0.26411008  0.83868888  0.17889081     0.15300
H1260       H  0.31357646  0.81386026  0.15994854     0.15900
C1261       C  0.03531703  0.67827797  0.16728053    -0.13700
C1262       C  0.02205656  0.66020086  0.13953811    -0.28900
H1263       H  0.04082000  0.71081354  0.16841597     0.15300
H1264       H  0.04988442  0.04689586  0.15548599     0.15900
C1265       C  0.03603871  0.88556232  0.22393899    -0.13700
C1266       C  0.03391574  0.88206715  0.25191710    -0.28900
H1267       H  0.02763772  0.86128065  0.20671650     0.15300
H1268       H  0.04019956  0.90756379  0.26833917     0.15900
C1269       C  0.12465047  0.96426778  0.23679144    -0.13700
C1270       C  0.14002950  0.95064493  0.26552520    -0.28900
H1271       H  0.13567788  0.97455697  0.22184213     0.15300
H1272       H  0.12965453  0.94168786  0.28135083     0.15900
C1273       C  0.27103587  0.96336298  0.40905256    -0.13700
C1274       C  0.29807371  0.97291066  0.42622865    -0.28900
H1275       H  0.25454136  0.96941874  0.41794994     0.15300
H1276       H  0.31439889  0.96412272  0.41747894     0.15900
C1277       C  0.20338296  0.84522728  0.18195585    -0.13700
C1278       C  0.20478049  0.80582676  0.17343686    -0.28900
H1279       H  0.19207270  0.86732123  0.16421914     0.15300
H1280       H  0.21688406  0.78391247  0.19077581     0.15900
C1281       C  0.22050163  0.77072260  0.34416047    -0.13700
C1282       C  0.21215371  0.73423175  0.33017213    -0.28900
H1283       H  0.21874077  0.77619388  0.36661170     0.15300
H1284       H  0.21048996  0.72978795  0.30625227     0.15900
C1285       C  0.26417527  0.70662683  0.25022513    -0.13700
C1286       C  0.28847461  0.72684023  0.26591735    -0.28900
H1287       H  0.25166011  0.71483704  0.22639842     0.15300
H1288       H  0.30098942  0.71700943  0.28939193     0.15900
C1289       C  0.34468751  0.84782471  0.31496307    -0.13700
C1290       C  0.36667755  0.85569079  0.34160583    -0.28900
H1291       H  0.34843373  0.83510577  0.29514269     0.15300
H1292       H  0.36256548  0.86592045  0.36193446     0.15900
C1293       C  0.46614796  0.81726175  0.40577854    -0.13700
C1294       C  0.46303848  0.82350856  0.43307538    -0.28900
H1295       H  0.48314809  0.79832390  0.40446498     0.15300
H1296       H  0.44603553  0.84358255  0.43312459     0.15900
C1297       C  0.44573308  0.91480660  0.31542972    -0.13700
C1298       C  0.47119913  0.93391821  0.32725831    -0.28900
H1299       H  0.43020298  0.92645298  0.29398937     0.15300
H1300       H  0.48671009  0.92402763  0.34922315     0.15900
C1301       C  0.44847361  0.83237375  0.87654358     0.05900
C1302       C  0.41889691  0.82840383  0.86800874    -0.10300
C1303       C  0.40022167  0.84799624  0.84156652     0.03400
C1304       C  0.41113374  0.87242293  0.82342021    -0.08800
C1305       C  0.44045042  0.87932393  0.83246010     0.05900
C1306       C  0.45899722  0.85832025  0.85872668    -0.08200
H1307       H  0.41006939  0.81194663  0.88278644     0.11500
H1308       H  0.39665660  0.88919842  0.80387712     0.09000
H1309       H  0.48157070  0.86263457  0.86582731     0.10800
Zn1310     Zn  0.28233400  0.92177454  0.81582418     1.49700
Zn1311     Zn  0.22685277  0.92971508  0.75297103     1.49400
Zn1312     Zn  0.25553940  0.84141860  0.77608105     1.49100
Zn1313     Zn  0.22469239  0.89050286  0.81639371     1.49500
O1314       O  0.24701089  0.89564063  0.78984083    -1.81400
O1315       O  0.28686693  0.97458463  0.79673392    -0.72000
O1316       O  0.21900334  0.89646989  0.71320188    -0.71800
O1317       O  0.29838206  0.83526792  0.78690710    -0.71300
O1318       O  0.25000822  0.98194815  0.75242619    -0.72000
O1319       O  0.31597208  0.88797544  0.81916247    -0.71600
O1320       O  0.23596061  0.83421734  0.72917877    -0.72200
O1321       O  0.22070291  0.83045613  0.82506687    -0.71600
O1322       O  0.18743483  0.94424127  0.75191075    -0.72400
O1323       O  0.24039416  0.79593820  0.79656504    -0.71700
O1324       O  0.18570257  0.91306015  0.79411646    -0.72200
O1325       O  0.24175656  0.92073609  0.85792926    -0.72100
O1326       O  0.28445145  0.93675714  0.85864634    -0.71900
C1327       C  0.27358312  0.99474967  0.77231317     0.79900
C1328       C  0.22266884  0.85901114  0.70743866     0.80400
C1329       C  0.31941326  0.85591818  0.80521352     0.79300
C1330       C  0.22721118  0.79670742  0.81538343     0.79700
C1331       C  0.17396074  0.93356098  0.76929485     0.80800
C1332       C  0.26627560  0.93641770  0.87159326     0.79900
C1333       C  0.04903114  0.96155386  0.67911012     0.05900
C1334       C  0.07826105  0.97036516  0.69338205    -0.10300
C1335       C  0.09530862  0.94818083  0.71953517     0.03400
C1336       C  0.08268438  0.91697050  0.73132262    -0.08800
C1337       C  0.05372131  0.90802859  0.71769384     0.05900
C1338       C  0.03687616  0.93038568  0.69158336    -0.08200
H1339       H  0.09650824  0.68492797  0.71206201     0.11500
H1340       H  0.09560117  0.89740736  0.74998465     0.09000
H1341       H  0.01477340  0.92201439  0.67999894     0.08800
C1342       C  0.31028357  0.80081843  0.70857335     0.05900
C1343       C  0.29644587  0.77797850  0.72480437    -0.10300
C1344       C  0.31200083  0.75351621  0.75035126     0.03400
C1345       C  0.34147831  0.75360447  0.76035944    -0.08800
C1346       C  0.35570286  0.77656896  0.74499042     0.05900
C1347       C  0.34018723  0.80069789  0.71931455    -0.08200
H1348       H  0.27364503  0.77797324  0.71673686     0.11500
H1349       H  0.35353536  0.73376415  0.77939844     0.09000
H1350       H  0.35128921  0.81751845  0.70693852     0.08800
Zn1351     Zn  0.47225205  0.70828454  0.76381902     1.49700
Zn1352     Zn  0.02412431  0.73688863  0.75713242     1.49400
Zn1353     Zn  0.49960667  0.79749296  0.79047160     1.49100
Zn1354     Zn  0.02778955  0.70388624  0.82377886     1.49500
O1355       O  0.50737083  0.73935712  0.78235940    -1.81400
O1356       O  0.46497370  0.68997064  0.72001392    -0.72000
O1357       O  0.02615881  0.79657846  0.74702540    -0.71800
O1358       O  0.45680989  0.80724513  0.77577938    -0.71300
O1359       O  0.00439287  0.70739853  0.71604386    -0.72000
O1360       O  0.44000977  0.74396310  0.76128108    -0.71600
O1361       O  0.00109215  0.83091178  0.76957769    -0.72200
O1362       O  0.03458816  0.74263170  0.85990032    -0.71600
O1363       O  0.06440504  0.71678272  0.77664898    -0.72400
O1364       O  0.01039532  0.79972252  0.84115436    -0.71700
O1365       O  0.06645539  0.69197104  0.82227593    -0.72200
O1366       O  0.00753619  0.99643225  0.83231946    -0.72100
O1367       O  0.46514994  0.98313664  0.78723680    -0.71900
C1368       C  0.47992564  0.69185876  0.70319890     0.79900
C1369       C  0.01611229  0.83012010  0.75264448     0.80400
C1370       C  0.43611708  0.78182081  0.76542421     0.79300
C1371       C  0.02725169  0.77896439  0.86380182     0.79700
C1372       C  0.07810588  0.69997308  0.80264956     0.80800
C1373       C  0.48158657  0.97083650  0.81389217     0.79900
C1374       C  0.19652442  0.99488336  0.89244308     0.05900
C1375       C  0.21263656  0.70053821  0.88974758    -0.10300
C1376       C  0.19999838  0.71901662  0.86059364     0.03400
C1377       C  0.17193845  0.70859838  0.84199026    -0.08800
C1378       C  0.15257873  0.00157754  0.84760836     0.05900
C1379       C  0.16739566  0.98725407  0.87769868    -0.08200
H1380       H  0.23369816  0.71017023  0.90482658     0.11500
H1381       H  0.16184192  0.72571294  0.82081253     0.09000
H1382       H  0.15582327  0.97250459  0.89053872     0.08800
C1383       C  0.43418654  0.96812996  0.62462007     0.05900
C1384       C  0.40540538  0.96721608  0.60578298    -0.10300
C1385       C  0.39610295  0.94706677  0.57687636     0.03400
C1386       C  0.41590073  0.92904894  0.56649315    -0.08800
C1387       C  0.44463670  0.92853411  0.58530610     0.05900
C1388       C  0.45380497  0.94806046  0.61448835    -0.08200
H1389       H  0.39093531  0.64613744  0.61543749     0.11500
H1390       H  0.40855248  0.91243264  0.54455537     0.09000
H1391       H  0.47574467  0.94615718  0.62964787     0.08800
Zn1392     Zn  0.23522699  0.89024099  0.58106840     1.49700
Zn1393     Zn  0.28505007  0.86215781  0.55974961     1.49400
Zn1394     Zn  0.22369959  0.86102172  0.50995564     1.49100
Zn1395     Zn  0.25342279  0.94814740  0.53507089     1.49500
O1396       O  0.24929482  0.89049917  0.54651700    -1.81400
O1397       O  0.26042671  0.85754794  0.61889087    -0.72000
O1398       O  0.28449265  0.81266862  0.53289939    -0.71800
O1399       O  0.18753603  0.84979081  0.51637935    -0.71300
O1400       O  0.29587150  0.84190469  0.60366036    -0.72000
O1401       O  0.19451351  0.86981289  0.56481189    -0.71600
O1402       O  0.23538342  0.80934627  0.00372718    -0.72200
O1403       O  0.23370917  0.95749755  0.98957893    -0.71600
O1404       O  0.31527189  0.90168680  0.55934536    -0.72400
O1405       O  0.21214112  0.89702353  0.97426349    -0.71700
O1406       O  0.29470396  0.96264402  0.54593838    -0.72200
O1407       O  0.23870910  0.98792533  0.55908627    -0.72100
O1408       O  0.23309145  0.94836886  0.59573635    -0.71900
C1409       C  0.28459909  0.84157961  0.62412838     0.79900
C1410       C  0.26516314  0.79438769  0.51060494     0.80400
C1411       C  0.17843324  0.85624000  0.53826391     0.79300
C1412       C  0.21832164  0.93318224  0.96824842     0.79700
C1413       C  0.31659465  0.94020834  0.55473407     0.80800
C1414       C  0.23294519  0.98355639  0.58353707     0.79900
C1415       C  0.05275280  0.85161760  0.93561669     0.05900
C1416       C  0.07965205  0.83727131  0.95434542    -0.10300
C1417       C  0.09378436  0.85257408  0.98464820     0.03400
C1418       C  0.08856407  0.88513757  0.50017857    -0.08800
C1419       C  0.05315806  0.89616220  0.97836374     0.05900
C1420       C  0.04018809  0.88245677  0.94741385    -0.08200
H1421       H  0.09037023  0.81573082  0.94462655     0.11500
H1422       H  0.10139857  0.90150122  0.52104455     0.09000
H1423       H  0.02005662  0.89512043  0.93282716     0.08800
C1424       C  0.30691922  0.99669345  0.94720385     0.05900
C1425       C  0.28710569  0.68521263  0.97218267    -0.10300
C1426       C  0.30299438  0.70510053  0.00038157     0.03400
C1427       C  0.33785263  0.69657613  0.51066456    -0.08800
C1428       C  0.34450382  0.02652087  0.99213323     0.05900
C1429       C  0.33551521  0.99909268  0.96681739    -0.08200
H1430       H  0.26510804  0.69202087  0.96038608     0.11500
H1431       H  0.34929434  0.71033639  0.53322494     0.09000
H1432       H  0.35089989  0.98161144  0.96091974     0.08800
C1433       C  0.19907625  0.79013922  0.63354092     0.05900
C1434       C  0.21317674  0.76231274  0.62105062    -0.10300
C1435       C  0.19955573  0.74571692  0.59108885     0.03400
C1436       C  0.17143583  0.75612103  0.57403966    -0.08800
C1437       C  0.15620134  0.78120312  0.58692980     0.05900
C1438       C  0.17054312  0.79947720  0.61632967    -0.08200
H1439       H  0.23481846  0.75391860  0.63450225     0.11500
H1440       H  0.16074305  0.74214772  0.55138038     0.09000
H1441       H  0.15945325  0.81968762  0.62645793     0.08800
Zn1442     Zn  0.47051869  0.78179036  0.52324467     1.49700
Zn1443     Zn  0.02457900  0.75127534  0.51482360     1.49400
Zn1444     Zn  0.02230286  0.76871343  0.58340618     1.49100
Zn1445     Zn  0.48706220  0.68824989  0.53771593     1.49500
O1446       O  0.50169399  0.74475329  0.53770254    -1.81400
O1447       O  0.45714862  0.77363718  0.96815459    -0.72000
O1448       O  0.06450104  0.77279145  0.54094445    -0.71800
O1449       O  0.00420312  0.81943253  0.59432422    -0.71300
O1450       O  0.00351521  0.77073666  0.96836755    -0.72000
O1451       O  0.47455296  0.83116215  0.54971292    -0.71600
O1452       O  0.06190834  0.78366139  0.58745008    -0.72200
O1453       O  0.00709479  0.66847310  0.58779922    -0.71600
O1454       O  0.02962606  0.69408818  0.49903212    -0.72400
O1455       O  0.02646434  0.72453993  0.61542396    -0.71700
O1456       O  0.00105069  0.98412636  0.51678943    -0.72200
O1457       O  0.44450549  0.68692773  0.52613446    -0.72100
O1458       O  0.43522474  0.75383564  0.52148129    -0.71900
C1459       C  0.47380667  0.77260024  0.95334311     0.79900
C1460       C  0.07594722  0.78316463  0.56960383     0.80400
C1461       C  0.48881094  0.83881708  0.57810077     0.79300
C1462       C  0.02051334  0.68617254  0.61371691     0.79700
C1463       C  0.01871956  0.98517574  0.50300904     0.80800
C1464       C  0.42740966  0.71671365  0.52194252     0.79900
C1465       C  0.12495736  0.78402599  0.56992983    -0.13700
C1466       C  0.10663909  0.79239143  0.58399315    -0.28900
H1467       H  0.11650336  0.77349678  0.54590976     0.15300
H1468       H  0.11447595  0.80091265  0.60838563     0.15900
C1469       C  0.39755182  0.70974586  0.51701687    -0.13700
C1470       C  0.38403678  0.67343828  0.50885780    -0.28900
H1471       H  0.38543033  0.73719952  0.51686601     0.15300
H1472       H  0.37963633  0.06750020  0.01883288     0.15900
C1473       C  0.02614382  0.94607821  0.49157966    -0.13700
C1474       C  0.05261445  0.93937411  0.49287083    -0.28900
H1475       H  0.03478346  0.97061869  0.95602013     0.15300
H1476       H  0.06884695  0.96268050  0.50336766     0.15900
C1477       C  0.14776541  0.85254653  0.53143434    -0.13700
C1478       C  0.13001240  0.84048918  0.50310449    -0.28900
H1479       H  0.13968002  0.86530853  0.54819596     0.15300
H1480       H  0.13448325  0.82928264  0.98545230     0.15900
C1481       C  0.27219159  0.75715612  0.49621584    -0.13700
C1482       C  0.29738911  0.73863547  0.50938226    -0.28900
H1483       H  0.25704227  0.74649454  0.47411437     0.15300
H1484       H  0.30586915  0.74918068  0.03755480     0.15900
C1485       C  0.21334721  0.71511365  0.57761894    -0.13700
C1486       C  0.22552449  0.68129430  0.59340718    -0.28900
H1487       H  0.20946835  0.71701677  0.55291193     0.15300
H1488       H  0.22668297  0.67743266  0.61721130     0.15900
C1489       C  0.36598680  0.93643688  0.56045787    -0.13700
C1490       C  0.34461072  0.95924772  0.56173918    -0.28900
H1491       H  0.36130292  0.90639615  0.54921071     0.15300
H1492       H  0.34823833  0.99058121  0.57063926     0.15900
C1493       C  0.46326143  0.90331934  0.57437951    -0.13700
C1494       C  0.48146971  0.87558866  0.59245131    -0.28900
H1495       H  0.45730446  0.90118589  0.54929524     0.15300
H1496       H  0.48738537  0.87634439  0.61753493     0.15900
C1497       C  0.21092502  0.98323263  0.92541850    -0.13700
C1498       C  0.20641805  0.94611004  0.93550282    -0.28900
H1499       H  0.22480892  0.00537681  0.94152178     0.15300
H1500       H  0.19292163  0.92397314  0.91885952     0.15900
C1501       C  0.10874408  0.69267548  0.81088562    -0.13700
C1502       C  0.12484415  0.67662569  0.83851617    -0.28900
H1503       H  0.11834414  0.70433276  0.79503136     0.15300
H1504       H  0.11173209  0.99801818  0.85402048     0.15900
C1505       C  0.03942753  0.79619012  0.89577778    -0.13700
C1506       C  0.03846793  0.83612098  0.90314500    -0.28900
H1507       H  0.05060017  0.77478721  0.91413958     0.15300
H1508       H  0.02728440  0.85782270  0.88516156     0.15900
C1509       C  0.46935722  0.67369202  0.67181701    -0.13700
C1510       C  0.44342550  0.65669181  0.65864343    -0.28900
H1511       H  0.48373533  0.67345893  0.65937796     0.15300
H1512       H  0.42756030  0.98502927  0.66780559     0.15900
C1513       C  0.38589200  0.76757351  0.75277533    -0.13700
C1514       C  0.40663737  0.79580911  0.75760873    -0.28900
H1515       H  0.39136920  0.73520780  0.75640271     0.15300
H1516       H  0.40199483  0.82847835  0.75627400     0.15900
C1517       C  0.29298636  0.82175760  0.67913622    -0.13700
C1518       C  0.30090610  0.82231252  0.65434352    -0.28900
H1519       H  0.27265975  0.83431702  0.67712858     0.15300
H1520       H  0.32055357  0.80770033  0.65604346     0.15900
C1521       C  0.04427302  0.67718108  0.67050526    -0.13700
C1522       C  0.03009802  0.66095465  0.64221655    -0.28900
H1523       H  0.04927637  0.70991682  0.67281806     0.15300
H1524       H  0.04916635  0.04012124  0.66039437     0.15900
C1525       C  0.04323822  0.87003652  0.72767613    -0.13700
C1526       C  0.02267901  0.86898042  0.73957199    -0.28900
H1527       H  0.05522940  0.84235134  0.72816847     0.15300
H1528       H  0.01194016  0.89710189  0.74129771     0.15900
C1529       C  0.12674190  0.95302962  0.73115514    -0.13700
C1530       C  0.14346858  0.94225186  0.76020561    -0.28900
H1531       H  0.13632390  0.96207672  0.71456004     0.15300
H1532       H  0.13398591  0.93465633  0.77715025     0.15900
C1533       C  0.27345402  0.95589859  0.90257029    -0.13700
C1534       C  0.29933777  0.97208012  0.91809605    -0.28900
H1535       H  0.25708325  0.95793302  0.91230146     0.15300
H1536       H  0.31595957  0.96754849  0.90886997     0.15900
C1537       C  0.21000287  0.84427418  0.67473369    -0.13700
C1538       C  0.21364108  0.80590572  0.66581966    -0.28900
H1539       H  0.19676224  0.86554606  0.65752720     0.15300
H1540       H  0.22788827  0.78522691  0.68258849     0.15900
C1541       C  0.21796859  0.75758792  0.82521169    -0.13700
C1542       C  0.21412304  0.75473753  0.85240779    -0.28900
H1543       H  0.21321978  0.73132150  0.80950172     0.15300
H1544       H  0.22084992  0.77996029  0.86905041     0.15900
C1545       C  0.27401776  0.70463018  0.75088028    -0.13700
C1546       C  0.29886832  0.72394468  0.76562764    -0.28900
H1547       H  0.26038237  0.71399085  0.72774500     0.15300
H1548       H  0.31211091  0.71325039  0.78861089     0.15900
C1549       C  0.34867110  0.84426997  0.80951420    -0.13700
C1550       C  0.36983116  0.84991872  0.83710067    -0.28900
H1551       H  0.35319342  0.83378926  0.78956737     0.15300
H1552       H  0.36475838  0.85786211  0.85730855     0.15900
C1553       C  0.46826418  0.81455818  0.90644570    -0.13700
C1554       C  0.46119103  0.78140099  0.91969996    -0.28900
H1555       H  0.48773087  0.83129336  0.91911806     0.15300
H1556       H  0.44175626  0.76467421  0.90708328     0.15900
C1557       C  0.45036606  0.91152838  0.81545779    -0.13700
C1558       C  0.47436784  0.93386973  0.82862904    -0.28900
H1559       H  0.43591663  0.92015834  0.79244316     0.15300
H1560       H  0.48850617  0.92695586  0.85210914     0.15900
C1561       C  0.93295178  0.16600846  0.37015760     0.05900
C1562       C  0.90317526  0.16655004  0.35531717    -0.10300
C1563       C  0.89018981  0.18972099  0.32824419     0.03400
C1564       C  0.90707702  0.21079791  0.31507359    -0.08800
C1565       C  0.93655925  0.21173976  0.32943307     0.05900
C1566       C  0.94960617  0.18922536  0.35711823    -0.08200
H1567       H  0.89004228  0.15125574  0.36608063     0.11500
H1568       H  0.89695868  0.22939119  0.29454910     0.09000
H1569       H  0.97224667  0.19108606  0.36885105     0.10800
Zn1570     Zn  0.77286951  0.26159388  0.31189535     1.49700
Zn1571     Zn  0.71388077  0.25879135  0.25524875     1.49400
Zn1572     Zn  0.74589601  0.17343883  0.28225481     1.49100
Zn1573     Zn  0.71833108  0.22825383  0.32230676     1.49500
O1574       O  0.73786306  0.23015012  0.29276402    -1.81400
O1575       O  0.77314896  0.31257971  0.28691097    -0.72000
O1576       O  0.70535630  0.22184066  0.21794922    -0.71800
O1577       O  0.78857938  0.16495278  0.29603794    -0.71300
O1578       O  0.73210491  0.31098844  0.24703267    -0.72000
O1579       O  0.80629917  0.22662274  0.31466526    -0.71600
O1580       O  0.72697619  0.16248709  0.23512272    -0.72200
O1581       O  0.71766504  0.17052311  0.33682251    -0.71600
O1582       O  0.67632933  0.27308336  0.25784119    -0.72400
O1583       O  0.73193638  0.13094308  0.30614264    -0.71700
O1584       O  0.67804371  0.24777210  0.30315759    -0.72200
O1585       O  0.73785263  0.26166844  0.36091379    -0.72100
O1586       O  0.77800410  0.28009187  0.35552050    -0.71900
C1587       C  0.75584800  0.32816471  0.26194244     0.79900
C1588       C  0.71145694  0.18526590  0.21298548     0.80400
C1589       C  0.80962564  0.18927117  0.30830103     0.79300
C1590       C  0.72263474  0.13528943  0.32814651     0.79700
C1591       C  0.66471410  0.26560054  0.27752277     0.80800
C1592       C  0.76211151  0.27880890  0.37142018     0.79900
C1593       C  0.54705155  0.31325031  0.18325177     0.05900
C1594       C  0.57518445  0.31970741  0.20321373    -0.10300
C1595       C  0.58819362  0.29336062  0.22833311     0.03400
C1596       C  0.57191207  0.26200731  0.23493536    -0.08800
C1597       C  0.54359518  0.25522519  0.21549880     0.05900
C1598       C  0.53144482  0.28024405  0.18918165    -0.08200
H1599       H  0.59628236  0.00885869  0.19774405     0.11500
H1600       H  0.58159742  0.24049578  0.25358563     0.09000
H1601       H  0.50989908  0.27424258  0.17376489     0.08800
C1602       C  0.81073350  0.13742915  0.19528350     0.05900
C1603       C  0.79397963  0.10701575  0.20221071    -0.10300
C1604       C  0.80519611  0.08250584  0.22884230     0.03400
C1605       C  0.83388136  0.08820973  0.24825800    -0.08800
C1606       C  0.85092108  0.11807403  0.24120637     0.05900
C1607       C  0.83890534  0.14318331  0.21525561    -0.08200
H1608       H  0.77256975  0.10106742  0.18636058     0.11500
H1609       H  0.84354323  0.06813270  0.26788452     0.09000
H1610       H  0.85216941  0.16545974  0.20932453     0.08800
Zn1611     Zn  0.97147722  0.02523637  0.26087543     1.49700
Zn1612     Zn  0.51821694  0.07832234  0.25624942     1.49400
Zn1613     Zn  0.98712610  0.11687794  0.28956064     1.49100
Zn1614     Zn  0.52162390  0.04055189  0.32128874     1.49500
O1615       O  0.00225145  0.06443602  0.28004295    -1.81400
O1616       O  0.96699641  0.01297371  0.21657237    -0.72000
O1617       O  0.52141628  0.13857257  0.24567140    -0.71800
O1618       O  0.94423726  0.11253558  0.27953671    -0.71300
O1619       O  0.49873197  0.04663792  0.21655818    -0.72000
O1620       O  0.93553551  0.04880009  0.26054070    -0.71600
O1621       O  0.50536883  0.17169879  0.27794531    -0.72200
O1622       O  0.52945097  0.07468735  0.35958656    -0.71600
O1623       O  0.55815610  0.05635014  0.27544771    -0.72400
O1624       O  0.50672172  0.13377340  0.34438297    -0.71700
O1625       O  0.55978048  0.02706944  0.31950384    -0.72200
O1626       O  0.50139798  0.31791617  0.32801015    -0.72100
O1627       O  0.96412940  0.31701594  0.29336276    -0.71900
C1628       C  0.98146088  0.02265295  0.20006683     0.79900
C1629       C  0.51675470  0.17190364  0.25748939     0.80400
C1630       C  0.92724482  0.08231819  0.26826005     0.79300
C1631       C  0.52274010  0.11035803  0.36566729     0.79700
C1632       C  0.57144290  0.03651251  0.30021209     0.80800
C1633       C  0.98089043  0.30304341  0.31935110     0.79900
C1634       C  0.69136673  0.33007026  0.38866783     0.05900
C1635       C  0.70833208  0.01842220  0.37515055    -0.10300
C1636       C  0.69438951  0.03333949  0.34494294     0.03400
C1637       C  0.66531462  0.02627859  0.32988126    -0.08800
C1638       C  0.64711532  0.34125728  0.34452071     0.05900
C1639       C  0.66194469  0.32426616  0.37391210    -0.08200
H1640       H  0.73064969  0.02517569  0.38713986     0.11500
H1641       H  0.65517849  0.03970805  0.30718646     0.09000
H1642       H  0.65024344  0.30842464  0.38611851     0.08800
C1643       C  0.93038619  0.30425784  0.12972121     0.05900
C1644       C  0.90194322  0.30539600  0.10973808    -0.10300
C1645       C  0.89276255  0.28371138  0.08145749     0.03400
C1646       C  0.91233303  0.26152015  0.07305134    -0.08800
C1647       C  0.94102111  0.26013778  0.09262492     0.05900
C1648       C  0.94977310  0.28141555  0.12101238    -0.08200
H1649       H  0.89360637  0.99044881  0.10929256     0.11500
H1650       H  0.90440984  0.24268797  0.05227020     0.09000
H1651       H  0.97132036  0.27809428  0.13704859     0.08800
Zn1652     Zn  0.72394369  0.23685446  0.06807561     1.49700
Zn1653     Zn  0.77920469  0.21027789  0.06200043     1.49400
Zn1654     Zn  0.72246831  0.20162461  0.00287510     1.49100
Zn1655     Zn  0.74910118  0.29227920  0.02688678     1.49500
O1656       O  0.74366524  0.23546274  0.03923112    -1.81400
O1657       O  0.73986938  0.19967943  0.10501678    -0.72000
O1658       O  0.78379501  0.15921131  0.04086544    -0.71800
O1659       O  0.68259146  0.19142743  0.00262648    -0.71300
O1660       O  0.78333810  0.19329040  0.10530572    -0.72000
O1661       O  0.68333012  0.22304009  0.04572580    -0.71600
O1662       O  0.73436415  0.13559710  0.49478619    -0.72200
O1663       O  0.72972109  0.28538872  0.48429279    -0.71600
O1664       O  0.81047309  0.24836496  0.06402467    -0.72400
O1665       O  0.70785698  0.22538855  0.46778073    -0.71700
O1666       O  0.79118588  0.30605420  0.03980368    -0.72200
O1667       O  0.73357369  0.33348085  0.04957845    -0.72100
O1668       O  0.72520207  0.29369862  0.08460703    -0.71900
C1669       C  0.76522864  0.18792121  0.11809885     0.79900
C1670       C  0.76924414  0.13827040  0.01709877     0.80400
C1671       C  0.66997259  0.20512986  0.02002024     0.79300
C1672       C  0.71359009  0.26226449  0.46254068     0.79700
C1673       C  0.81277005  0.28458127  0.05466324     0.80800
C1674       C  0.72700434  0.32895525  0.07354260     0.79900
C1675       C  0.54846780  0.17575823  0.44053353     0.05900
C1676       C  0.57634755  0.16323890  0.45692667    -0.10300
C1677       C  0.59189745  0.17857073  0.48681624     0.03400
C1678       C  0.58068564  0.24096800  0.97687869    -0.08800
C1679       C  0.55059036  0.21826005  0.48468503     0.05900
C1680       C  0.53589334  0.20386704  0.45432489    -0.08200
H1681       H  0.58665584  0.14348004  0.44549133     0.11500
H1682       H  0.59382645  0.25845526  0.99702893     0.09000
H1683       H  0.51467902  0.21462149  0.44143241     0.08800
C1684       C  0.81020336  0.32497302  0.44992827     0.05900
C1685       C  0.79455761  0.02026632  0.46108260    -0.10300
C1686       C  0.80768143  0.03930590  0.49050830     0.03400
C1687       C  0.82835033  0.05677971  0.99706289    -0.08800
C1688       C  0.85230675  0.33766539  0.49586030     0.05900
C1689       C  0.83895629  0.31870894  0.46703776    -0.08200
H1690       H  0.77268646  0.02619082  0.44715405     0.11500
H1691       H  0.83613704  0.07862953  0.01606346     0.09000
H1692       H  0.85151198  0.30131294  0.45682058     0.08800
C1693       C  0.69260711  0.11915280  0.13796173     0.05900
C1694       C  0.70809674  0.09330757  0.12589677    -0.10300
C1695       C  0.69620402  0.07833277  0.09527133     0.03400
C1696       C  0.66843436  0.08873682  0.07676792    -0.08800
C1697       C  0.65171676  0.11217005  0.08878438     0.05900
C1698       C  0.66434279  0.12841988  0.11926333    -0.08200
H1699       H  0.72950368  0.08502056  0.14026599     0.11500
H1700       H  0.65911835  0.07586190  0.05352957     0.09000
H1701       H  0.65216635  0.14702353  0.12902450     0.08800
Zn1702     Zn  0.96022196  0.10863873  0.00691710     1.49700
Zn1703     Zn  0.51941691  0.07984555  0.01255787     1.49400
Zn1704     Zn  0.51830536  0.09478407  0.08213728     1.49100
Zn1705     Zn  0.99260722  0.02714968  0.03584205     1.49500
O1706       O  0.99712129  0.08567084  0.02624539    -1.81400
O1707       O  0.96348474  0.11866832  0.46273872    -0.72000
O1708       O  0.55906122  0.10504474  0.03798653    -0.71800
O1709       O  0.50162028  0.14605459  0.09381591    -0.71300
O1710       O  0.49665236  0.12208421  0.47003321    -0.72000
O1711       O  0.95567307  0.16156285  0.02563638    -0.71600
O1712       O  0.55727611  0.10997354  0.08540041    -0.72200
O1713       O  0.50360456  0.99445869  0.08654333    -0.71600
O1714       O  0.52731412  0.02306959  0.99782533    -0.72400
O1715       O  0.52173741  0.05126629  0.11385764    -0.71700
O1716       O  0.48998208  0.32363015  0.00124619    -0.72200
O1717       O  0.95052174  0.01056684  0.02422432    -0.72100
O1718       O  0.93016049  0.07093599  0.00883539    -0.71900
C1719       C  0.98154241  0.11999062  0.44962861     0.79900
C1720       C  0.57077901  0.11308946  0.06712933     0.80400
C1721       C  0.96937308  0.18042310  0.05070901     0.79300
C1722       C  0.51590926  0.01290478  0.11235019     0.79700
C1723       C  0.50832385  0.32867684  0.98857999     0.80800
C1724       C  0.92852919  0.03303357  0.01473973     0.79900
C1725       C  0.62067471  0.11455716  0.06981232    -0.13700
C1726       C  0.60113520  0.12430039  0.08189438    -0.28900
H1727       H  0.61333416  0.10220227  0.04629228     0.15300
H1728       H  0.60772998  0.13475173  0.10576802     0.15900
C1729       C  0.89993701  0.01542103  0.00839895    -0.13700
C1730       C  0.87867765  0.04064795  0.00748384    -0.28900
H1731       H  0.89584258  0.98338650  0.00133486     0.15300
H1732       H  0.89523974  0.31330058  0.50470252     0.15900
C1733       C  0.51649952  0.29259822  0.97416656    -0.13700
C1734       C  0.54226377  0.29027144  0.97225649    -0.28900
H1735       H  0.53349615  0.29234907  0.46254503     0.15300
H1736       H  0.55740254  0.31521800  0.98185756     0.15900
C1737       C  0.63883009  0.20416629  0.00943419    -0.13700
C1738       C  0.62264201  0.19750171  0.97953052    -0.28900
H1739       H  0.62924539  0.21459705  0.02560505     0.15300
H1740       H  0.63159299  0.15669273  0.48358800     0.15900
C1741       C  0.78300735  0.10107753  0.01106584    -0.13700
C1742       C  0.77914938  0.08597636  0.98268438    -0.28900
H1743       H  0.79984985  0.08875166  0.03112850     0.15300
H1744       H  0.80687175  0.08136423  0.52725067     0.15900
C1745       C  0.71136395  0.04887971  0.08266031    -0.13700
C1746       C  0.72428831  0.01591095  0.09906804    -0.28900
H1747       H  0.70798481  0.05061992  0.05806481     0.15300
H1748       H  0.72506761  0.01200924  0.12273375     0.15900
C1749       C  0.86241789  0.27556854  0.06399132    -0.13700
C1750       C  0.84153325  0.30147374  0.06245447    -0.28900
H1751       H  0.85683483  0.24478167  0.05421539     0.15300
H1752       H  0.84594082  0.33340718  0.06973367     0.15900
C1753       C  0.96088464  0.23145352  0.08610088    -0.13700
C1754       C  0.95637890  0.21777980  0.05724486    -0.28900
H1755       H  0.97799439  0.21858339  0.10569143     0.15300
H1756       H  0.93987643  0.23132830  0.03748736     0.15900
C1757       C  0.70653711  0.31454682  0.42078164    -0.13700
C1758       C  0.70010732  0.27795631  0.43039644    -0.28900
H1759       H  0.72366991  0.33315995  0.43653891     0.15300
H1760       H  0.68411376  0.25836572  0.41393157     0.15900
C1761       C  0.60147542  0.02635427  0.30702397    -0.13700
C1762       C  0.61781006  0.00776570  0.33362917    -0.28900
H1763       H  0.61035684  0.03747063  0.29044500     0.15300
H1764       H  0.60589069  0.33324126  0.34977385     0.15900
C1765       C  0.53496602  0.12402620  0.39842559    -0.13700
C1766       C  0.53341550  0.16271670  0.40784124    -0.28900
H1767       H  0.54681784  0.10143721  0.41544026     0.15300
H1768       H  0.52141062  0.18556718  0.39137039     0.15900
C1769       C  0.97261323  0.00707266  0.16788278    -0.13700
C1770       C  0.94597395  0.99400109  0.15210119    -0.28900
H1771       H  0.98822270  0.00658677  0.15698194     0.15300
H1772       H  0.92306804  0.32441138  0.17196777     0.15900
C1773       C  0.88216914  0.11951714  0.25728172    -0.13700
C1774       C  0.89688269  0.08448058  0.26300905    -0.28900
H1775       H  0.89325353  0.14866101  0.25849438     0.15300
H1776       H  0.88546127  0.05525078  0.25875190     0.15900
C1777       C  0.80088954  0.16022312  0.16552694    -0.13700
C1778       C  0.77358574  0.16730524  0.14851368    -0.28900
H1779       H  0.81705523  0.17186810  0.15730618     0.15300
H1780       H  0.75710007  0.15842420  0.15705582     0.15900
C1781       C  0.54072905  0.00511105  0.16854852    -0.13700
C1782       C  0.52498751  0.98847301  0.14099983    -0.28900
H1783       H  0.54596786  0.03777552  0.17029345     0.15300
H1784       H  0.51232763  0.29554350  0.12424366     0.15900
C1785       C  0.52814313  0.21878331  0.22100118    -0.13700
C1786       C  0.52648006  0.21167902  0.24900603    -0.28900
H1787       H  0.51919616  0.19666560  0.20222747     0.15300
H1788       H  0.53361406  0.23541204  0.26685379     0.15900
C1789       C  0.61957165  0.29470325  0.24313615    -0.13700
C1790       C  0.63451283  0.27506693  0.26961865    -0.28900
H1791       H  0.63090938  0.30915334  0.22983566     0.15300
H1792       H  0.62410984  0.26242981  0.28444080     0.15900
C1793       C  0.77192561  0.29677455  0.40300998    -0.13700
C1794       C  0.79883555  0.30896835  0.41762677    -0.28900
H1795       H  0.75726562  0.29772426  0.41510961     0.15300
H1796       H  0.81378964  0.30497814  0.40600506     0.15900
C1797       C  0.69925169  0.16994784  0.18049344    -0.13700
C1798       C  0.70584971  0.13376601  0.17084947    -0.28900
H1799       H  0.68440199  0.19002983  0.16368531     0.15300
H1800       H  0.72212399  0.11496559  0.18721497     0.15900
C1801       C  0.71691574  0.09940040  0.34446515    -0.13700
C1802       C  0.70846964  0.06272339  0.33075483    -0.28900
H1803       H  0.71572376  0.10498483  0.36716915     0.15300
H1804       H  0.70645121  0.05808339  0.30674289     0.15900
C1805       C  0.79240166  0.03239316  0.26224306    -0.13700
C1806       C  0.78744561  0.04836072  0.23396663    -0.28900
H1807       H  0.80870428  0.04619953  0.28232671     0.15300
H1808       H  0.77046180  0.03550450  0.21398074     0.15900
C1809       C  0.83876841  0.17386592  0.31616364    -0.13700
C1810       C  0.85968572  0.19990377  0.31676252    -0.28900
H1811       H  0.84309670  0.14155366  0.32175823     0.15300
H1812       H  0.85421162  0.23119595  0.30852355     0.15900
C1813       C  0.94485886  0.14525508  0.40115082    -0.13700
C1814       C  0.97237006  0.13631396  0.41723627    -0.28900
H1815       H  0.92956916  0.13739256  0.41174422     0.15300
H1816       H  0.98820872  0.14194631  0.40714408     0.15900
C1817       C  0.95179041  0.24051773  0.31578132    -0.13700
C1818       C  0.97305875  0.26547756  0.33285864    -0.28900
H1819       H  0.94182510  0.24661709  0.29101968     0.15300
H1820       H  0.98317142  0.26064324  0.35773656     0.15900
C1821       C  0.94089019  0.16555508  0.86047708     0.05900
C1822       C  0.91090551  0.16261560  0.84909789    -0.10300
C1823       C  0.89446799  0.18576464  0.82317835     0.03400
C1824       C  0.90804291  0.21032232  0.80783899    -0.08800
C1825       C  0.93760579  0.21329416  0.81839492     0.05900
C1826       C  0.95386161  0.19002207  0.84431155    -0.08200
H1827       H  0.90029470  0.14442586  0.86123822     0.11500
H1828       H  0.89540880  0.22938757  0.78866875     0.09000
H1829       H  0.97668581  0.19228436  0.85294621     0.10800
Zn1830     Zn  0.78042432  0.24832354  0.82048316     1.49700
Zn1831     Zn  0.72337620  0.25675412  0.76092446     1.49400
Zn1832     Zn  0.75082680  0.16627866  0.78330778     1.49100
Zn1833     Zn  0.72370088  0.21939574  0.82466037     1.49500
O1834       O  0.74447477  0.22224739  0.79669253    -1.81400
O1835       O  0.78590514  0.29877145  0.79937269    -0.72000
O1836       O  0.71269177  0.22281654  0.72139758    -0.71800
O1837       O  0.79366791  0.15638906  0.79471764    -0.71300
O1838       O  0.74711399  0.30667032  0.75725448    -0.72000
O1839       O  0.81267798  0.21229191  0.82273908    -0.71600
O1840       O  0.72997300  0.16010299  0.73577100    -0.72200
O1841       O  0.72291436  0.16148810  0.83833530    -0.71600
O1842       O  0.68583370  0.27445160  0.76344972    -0.72400
O1843       O  0.73640066  0.12270129  0.80649902    -0.71700
O1844       O  0.68406126  0.23914342  0.80397859    -0.72200
O1845       O  0.74066558  0.25404975  0.86318163    -0.72100
O1846       O  0.78340772  0.26758852  0.86294920    -0.71900
C1847       C  0.77188984  0.31833518  0.77495487     0.79900
C1848       C  0.71603981  0.18562493  0.71473053     0.80400
C1849       C  0.81527035  0.17797541  0.81080788     0.79300
C1850       C  0.72740048  0.12650633  0.82883222     0.79700
C1851       C  0.67255880  0.26235409  0.78070606     0.80800
C1852       C  0.76513080  0.27004452  0.87573523     0.79900
C1853       C  0.55378596  0.32340529  0.69519808     0.05900
C1854       C  0.58308386  0.32451888  0.71140956    -0.10300
C1855       C  0.59611550  0.29591331  0.73484807     0.03400
C1856       C  0.57910889  0.26687748  0.74282399    -0.08800
C1857       C  0.54954814  0.26582281  0.72726565     0.05900
C1858       C  0.53694037  0.29441388  0.70349003    -0.08200
H1859       H  0.59897216  0.01202926  0.70287818     0.11500
H1860       H  0.58869289  0.24384755  0.76029341     0.09000
H1861       H  0.51430170  0.29313081  0.69069638     0.08800
C1862       C  0.80541049  0.12666636  0.70356506     0.05900
C1863       C  0.79203743  0.10423131  0.72045219    -0.10300
C1864       C  0.80802390  0.08079703  0.74641503     0.03400
C1865       C  0.83749907  0.08159847  0.75623596    -0.08800
C1866       C  0.85130843  0.10400375  0.74008702     0.05900
C1867       C  0.83531284  0.12699046  0.71389835    -0.08200
H1868       H  0.76923766  0.10364469  0.71257998     0.11500
H1869       H  0.84985153  0.06253252  0.77564984     0.09000
H1870       H  0.84603315  0.14337556  0.70090605     0.08800
Zn1871     Zn  0.96989143  0.03759641  0.76430565     1.49700
Zn1872     Zn  0.52326555  0.06611377  0.75354684     1.49400
Zn1873     Zn  0.99511240  0.12935096  0.78781263     1.49100
Zn1874     Zn  0.52354381  0.04137562  0.82023294     1.49500
O1875       O  0.00419475  0.07090654  0.78216057    -1.81400
O1876       O  0.96611897  0.01530191  0.72245205    -0.72000
O1877       O  0.53360957  0.12323613  0.74439193    -0.71800
O1878       O  0.95202375  0.13718882  0.77167290    -0.71300
O1879       O  0.50113938  0.03928166  0.71282865    -0.72000
O1880       O  0.93651379  0.07323778  0.75752151    -0.71600
O1881       O  0.51002499  0.16628025  0.76310907    -0.72200
O1882       O  0.52941483  0.08195990  0.85482167    -0.71600
O1883       O  0.56008526  0.03661433  0.77326386    -0.72400
O1884       O  0.50998479  0.14047053  0.83210708    -0.71700
O1885       O  0.56212204  0.02429378  0.82133403    -0.72200
O1886       O  0.49997062  0.31960329  0.83283882    -0.72100
O1887       O  0.96480185  0.31889894  0.78120888    -0.71900
C1888       C  0.98090475  0.01901618  0.70548686     0.79900
C1889       C  0.52681095  0.15962475  0.74875444     0.80400
C1890       C  0.93180858  0.11107347  0.76075529     0.79300
C1891       C  0.52349251  0.11969098  0.85634736     0.79700
C1892       C  0.57323988  0.02360133  0.80068200     0.80800
C1893       C  0.98209789  0.30338567  0.80615463     0.79900
C1894       C  0.68933102  0.33810718  0.88346386     0.05900
C1895       C  0.70978032  0.01421547  0.87624997    -0.10300
C1896       C  0.69496682  0.02802523  0.84587657     0.03400
C1897       C  0.66587771  0.02013014  0.83198294    -0.08800
C1898       C  0.64389430  0.34547450  0.84038540     0.05900
C1899       C  0.66063973  0.32705322  0.86855807    -0.08200
H1900       H  0.73204056  0.02153951  0.88731280     0.11500
H1901       H  0.65469314  0.03351854  0.80945218     0.09000
H1902       H  0.65072710  0.30661007  0.88021056     0.08800
C1903       C  0.93151028  0.30841182  0.62201059     0.05900
C1904       C  0.90266956  0.30300652  0.60390820    -0.10300
C1905       C  0.89404179  0.27605308  0.57819626     0.03400
C1906       C  0.91464891  0.25544495  0.57036097    -0.08800
C1907       C  0.94355915  0.26034584  0.58840460     0.05900
C1908       C  0.95166989  0.28663797  0.61410835    -0.08200
H1909       H  0.89212215  0.99899235  0.61991818     0.11500
H1910       H  0.90794244  0.23308642  0.55159578     0.09000
H1911       H  0.97359128  0.28797644  0.62898078     0.08800
Zn1912     Zn  0.73011689  0.21796333  0.57663965     1.49700
Zn1913     Zn  0.77989891  0.18926078  0.55529409     1.49400
Zn1914     Zn  0.71796252  0.18869256  0.50554511     1.49100
Zn1915     Zn  0.74961819  0.27530910  0.53095731     1.49500
O1916       O  0.74423927  0.21791810  0.54206651    -1.81400
O1917       O  0.75485634  0.18374323  0.61406764    -0.72000
O1918       O  0.77888788  0.14139219  0.52744966    -0.71800
O1919       O  0.68107886  0.17895741  0.51173961    -0.71300
O1920       O  0.78984378  0.16695127  0.59839272    -0.72000
O1921       O  0.68871953  0.19975518  0.56014572    -0.71600
O1922       O  0.74438138  0.14923310  0.99955458    -0.72200
O1923       O  0.72937820  0.29911901  0.97979772    -0.71600
O1924       O  0.81149905  0.22773905  0.55685661    -0.72400
O1925       O  0.71496024  0.23512091  0.96403269    -0.71700
O1926       O  0.79155143  0.28902956  0.54377064    -0.72200
O1927       O  0.73400580  0.31508474  0.55438682    -0.72100
O1928       O  0.72909549  0.27622093  0.59181722    -0.71900
C1929       C  0.77865299  0.16669550  0.61891148     0.79900
C1930       C  0.75977973  0.12271386  0.50523667     0.80400
C1931       C  0.67216571  0.18654822  0.53365936     0.79300
C1932       C  0.71726692  0.27300731  0.95818062     0.79700
C1933       C  0.81336835  0.26635242  0.55306940     0.80800
C1934       C  0.72853258  0.31116213  0.57908881     0.79900
C1935       C  0.54729602  0.19918551  0.92248103     0.05900
C1936       C  0.57536830  0.18745847  0.93880143    -0.10300
C1937       C  0.59217201  0.20786688  0.96593549     0.03400
C1938       C  0.57838932  0.20512900  0.50107232    -0.08800
C1939       C  0.55257043  0.25314467  0.96105017     0.05900
C1940       C  0.53590092  0.23212884  0.93368254    -0.08200
H1941       H  0.58477579  0.16348183  0.92954935     0.11500
H1942       H  0.58975265  0.21805414  0.52385531     0.09000
H1943       H  0.51455303  0.24216361  0.92062973     0.08800
C1944       C  0.80475060  0.33579755  0.94819906     0.05900
C1945       C  0.79061409  0.03048037  0.95143729    -0.10300
C1946       C  0.79943809  0.05618125  0.97776116     0.03400
C1947       C  0.83674237  0.03293743  0.50687250    -0.08800
C1948       C  0.84258220  0.36512844  0.99281744     0.05900
C1949       C  0.83343377  0.33873863  0.96702671    -0.08200
H1950       H  0.76890167  0.03167854  0.93549038     0.11500
H1951       H  0.84734167  0.04827789  0.52899479     0.09000
H1952       H  0.84877116  0.32237633  0.96026205     0.08800
C1953       C  0.69448143  0.12396736  0.63723167     0.05900
C1954       C  0.71043214  0.10002201  0.62443818    -0.10300
C1955       C  0.69864265  0.08568944  0.59359577     0.03400
C1956       C  0.67057270  0.09531037  0.57558454    -0.08800
C1957       C  0.65356036  0.11732928  0.58812888     0.05900
C1958       C  0.66599804  0.13253511  0.61897731    -0.08200
H1959       H  0.73204637  0.09239507  0.63860342     0.11500
H1960       H  0.66131056  0.08306645  0.55214486     0.09000
H1961       H  0.65349885  0.14884882  0.62967900     0.08800
Zn1962     Zn  0.96764082  0.11201031  0.50696872     1.49700
Zn1963     Zn  0.52040984  0.09149589  0.51159541     1.49400
Zn1964     Zn  0.52089828  0.10991821  0.58132817     1.49100
Zn1965     Zn  0.98914917  0.02747652  0.54113546     1.49500
O1966       O  0.00081584  0.08243657  0.53159826    -1.81400
O1967       O  0.95184157  0.12096981  0.96287375    -0.72000
O1968       O  0.56055895  0.11583274  0.53587466    -0.71800
O1969       O  0.50409679  0.16072588  0.59345417    -0.71300
O1970       O  0.49493730  0.11320061  0.97294439    -0.72000
O1971       O  0.96668862  0.16823334  0.52278776    -0.71600
O1972       O  0.55951732  0.12590456  0.58323647    -0.72200
O1973       O  0.50235228  0.01134443  0.58577690    -0.71600
O1974       O  0.52638604  0.03277250  0.49985643    -0.72400
O1975       O  0.52571002  0.06553807  0.61309525    -0.71700
O1976       O  0.50588465  0.31366896  0.51514965    -0.72200
O1977       O  0.94641870  0.02410320  0.53132145    -0.72100
O1978       O  0.93345323  0.08538901  0.50966082    -0.71900
C1979       C  0.96616143  0.12719117  0.94585213     0.79900
C1980       C  0.57264998  0.12643985  0.56450555     0.80400
C1981       C  0.97630025  0.18283044  0.55012390     0.79300
C1982       C  0.51780864  0.02795692  0.61144506     0.79700
C1983       C  0.52073618  0.32083231  0.49852514     0.80800
C1984       C  0.92763438  0.05134805  0.51948252     0.79900
C1985       C  0.62242057  0.11849899  0.56931283    -0.13700
C1986       C  0.60312056  0.13747091  0.57807172    -0.28900
H1987       H  0.61467397  0.09940814  0.54850013     0.15300
H1988       H  0.60980369  0.15609714  0.59899911     0.15900
C1989       C  0.89813269  0.04513535  0.51664828    -0.13700
C1990       C  0.88415834  0.00936743  0.50777301    -0.28900
H1991       H  0.88626100  0.07289526  0.51633106     0.15300
H1992       H  0.87791411  0.40682572  0.01743785     0.15900
C1993       C  0.53024496  0.28640976  0.48416427    -0.13700
C1994       C  0.53794441  0.24998721  0.49837635    -0.28900
H1995       H  0.50212780  0.26629335  0.96734314     0.15300
H1996       H  0.53771257  0.24516335  0.52155538     0.15900
C1997       C  0.64137081  0.18397958  0.52726010    -0.13700
C1998       C  0.62297992  0.17083407  0.49949101    -0.28900
H1999       H  0.63391049  0.19719529  0.54435231     0.15300
H2000       H  0.63239588  0.18613954  0.96374376     0.15900
C2001       C  0.76789695  0.08633700  0.49078353    -0.13700
C2002       C  0.79373229  0.06960353  0.50444429    -0.28900
H2003       H  0.75346977  0.07539144  0.46836651     0.15300
H2004       H  0.76197861  0.09750002  0.96252176     0.15900
C2005       C  0.71395350  0.05695114  0.58037176    -0.13700
C2006       C  0.72834003  0.02492137  0.59688300    -0.28900
H2007       H  0.70904566  0.05755308  0.55541698     0.15300
H2008       H  0.73044164  0.02176318  0.62104090     0.15900
C2009       C  0.86412762  0.26251199  0.56299794    -0.13700
C2010       C  0.84174505  0.28534840  0.56148595    -0.28900
H2011       H  0.86045045  0.23115942  0.55404241     0.15300
H2012       H  0.84446760  0.31758502  0.56821990     0.15900
C2013       C  0.96490375  0.23294844  0.58386236    -0.13700
C2014       C  0.96259247  0.22021484  0.55548836    -0.28900
H2015       H  0.98120024  0.22034088  0.60432552     0.15300
H2016       H  0.94677601  0.23409197  0.53522666     0.15900
C2017       C  0.70510253  0.32505581  0.91594686    -0.13700
C2018       C  0.70419577  0.28612803  0.92535304    -0.28900
H2019       H  0.71708758  0.34827297  0.93252606     0.15300
H2020       H  0.69267056  0.26296912  0.90832923     0.15900
C2021       C  0.60272639  0.01021911  0.80865832    -0.13700
C2022       C  0.61964240  0.00097403  0.83791784    -0.28900
H2023       H  0.61119979  0.01201356  0.79032733     0.15300
H2024       H  0.60397526  0.33061990  0.84694875     0.15900
C2025       C  0.53386275  0.13927394  0.88728790    -0.13700
C2026       C  0.53125749  0.17962582  0.89204546    -0.28900
H2027       H  0.54570212  0.11996550  0.90684119     0.15300
H2028       H  0.51887772  0.19911820  0.87294350     0.15900
C2029       C  0.97091622  0.00029156  0.67435867    -0.13700
C2030       C  0.94398975  0.98790828  0.66038157    -0.28900
H2031       H  0.98531190  0.99925368  0.66192816     0.15300
H2032       H  0.92449836  0.33336771  0.66298091     0.15900
C2033       C  0.88162245  0.09555759  0.74781893    -0.13700
C2034       C  0.90198058  0.12417925  0.75167830    -0.28900
H2035       H  0.88762375  0.06351269  0.75265359     0.15300
H2036       H  0.89683675  0.15668033  0.74924236     0.15900
C2037       C  0.78763236  0.14706134  0.67408395    -0.13700
C2038       C  0.79484305  0.14661330  0.64882979    -0.28900
H2039       H  0.76765467  0.16041785  0.67259586     0.15300
H2040       H  0.81412703  0.13120115  0.65013466     0.15900
C2041       C  0.54453449  0.01731072  0.66737620    -0.13700
C2042       C  0.52721275  0.00247820  0.63976364    -0.28900
H2043       H  0.55252914  0.04874765  0.66919099     0.15300
H2044       H  0.52571632  0.29953540  0.63767195     0.15900
C2045       C  0.53221425  0.23336330  0.73499864    -0.13700
C2046       C  0.54054163  0.19383474  0.73811361    -0.28900
H2047       H  0.51259258  0.24181381  0.73767373     0.15300
H2048       H  0.55902242  0.18582805  0.73280038     0.15900
C2049       C  0.62754469  0.29351954  0.74713919    -0.13700
C2050       C  0.64264057  0.27322511  0.77318321    -0.28900
H2051       H  0.63848353  0.30670437  0.73296844     0.15300
H2052       H  0.63248115  0.26143676  0.78849955     0.15900
C2053       C  0.77196311  0.29270122  0.90530668    -0.13700
C2054       C  0.79714000  0.31135157  0.91918653    -0.28900
H2055       H  0.75599642  0.29435517  0.91563972     0.15300
H2056       H  0.81339410  0.30775208  0.90928599     0.15900
C2057       C  0.70273590  0.17274385  0.68156652    -0.13700
C2058       C  0.70739375  0.13620089  0.67067098    -0.28900
H2059       H  0.68911078  0.19474488  0.66537454     0.15300
H2060       H  0.72210483  0.11507050  0.68648547     0.15900
C2061       C  0.72181594  0.09038570  0.84499756    -0.13700
C2062       C  0.70832625  0.05648116  0.83008021    -0.28900
H2063       H  0.72447377  0.09478009  0.86924229     0.15300
H2064       H  0.70242944  0.05409535  0.80503005     0.15900
C2065       C  0.77150953  0.02968775  0.74703149    -0.13700
C2066       C  0.79521257  0.05146630  0.76219751    -0.28900
H2067       H  0.75881612  0.03672904  0.72301744     0.15300
H2068       H  0.80802963  0.04289395  0.78589316     0.15900
C2069       C  0.84434323  0.16433109  0.81547187    -0.13700
C2070       C  0.86386788  0.19293143  0.81578049    -0.28900
H2071       H  0.84959246  0.13191823  0.81827730     0.15300
H2072       H  0.85696133  0.22447484  0.81004163     0.15900
C2073       C  0.95909669  0.14696629  0.89075043    -0.13700
C2074       C  0.94984215  0.14288053  0.91434816    -0.28900
H2075       H  0.98095672  0.13969701  0.89451239     0.15300
H2076       H  0.92840398  0.15219613  0.91082173     0.15900
C2077       C  0.95002077  0.24466232  0.80350115    -0.13700
C2078       C  0.97450940  0.26493145  0.81858139    -0.28900
H2079       H  0.93664351  0.25535343  0.78062419     0.15300
H2080       H  0.98795184  0.25592938  0.84184585     0.15900
C2081       C  0.93778367  0.49973660  0.35465396     0.05900
C2082       C  0.90772907  0.49884717  0.34234076    -0.10300
C2083       C  0.89259878  0.52615545  0.31849779     0.03400
C2084       C  0.90758801  0.55281866  0.30617083    -0.08800
C2085       C  0.93715866  0.55377277  0.31764895     0.05900
C2086       C  0.95212603  0.52664370  0.34149837    -0.08200
H2087       H  0.89609762  0.47876866  0.35217123     0.11500
H2088       H  0.89603212  0.57471713  0.28845379     0.09000
H2089       H  0.97495228  0.52759852  0.35080142     0.10800
Zn2090     Zn  0.77675652  0.59160000  0.30890714     1.49700
Zn2091     Zn  0.71673348  0.59112421  0.25424973     1.49400
Zn2092     Zn  0.74813594  0.50384131  0.27819641     1.49100
Zn2093     Zn  0.72383745  0.55809383  0.32147177     1.49500
O2094       O  0.74148039  0.56051286  0.29039887    -1.81400
O2095       O  0.77741226  0.64130830  0.28335251    -0.72000
O2096       O  0.70446276  0.55497583  0.21638520    -0.71800
O2097       O  0.79125488  0.49570898  0.28963480    -0.71300
O2098       O  0.73556332  0.64213308  0.24481342    -0.72000
O2099       O  0.80924408  0.55626347  0.31074150    -0.71600
O2100       O  0.72575146  0.49468999  0.23068210    -0.72200
O2101       O  0.72388383  0.50045417  0.33649053    -0.71600
O2102       O  0.68070450  0.60718554  0.25964180    -0.72400
O2103       O  0.73499833  0.46091329  0.30332560    -0.71700
O2104       O  0.68353280  0.57717146  0.30388847    -0.72200
O2105       O  0.74394131  0.59301757  0.35900099    -0.72100
O2106       O  0.78320905  0.61275555  0.35222682    -0.71900
C2107       C  0.76000607  0.65777598  0.25892615     0.79900
C2108       C  0.70914190  0.51838999  0.20990448     0.80400
C2109       C  0.81244720  0.51978090  0.30256398     0.79300
C2110       C  0.72737774  0.46517624  0.32665818     0.79700
C2111       C  0.66980214  0.59731640  0.27952714     0.80800
C2112       C  0.76761091  0.61188646  0.36841675     0.79900
C2113       C  0.54837464  0.64395272  0.19388256     0.05900
C2114       C  0.57713180  0.65058971  0.21147158    -0.10300
C2115       C  0.59238943  0.62238667  0.23419351     0.03400
C2116       C  0.57826694  0.58780515  0.24006351    -0.08800
C2117       C  0.54931703  0.58133554  0.22369679     0.05900
C2118       C  0.53430129  0.60955061  0.20059346    -0.08200
H2119       H  0.58760471  0.34392966  0.19797015     0.11500
H2120       H  0.58996223  0.56433438  0.25613880     0.09000
H2121       H  0.51226894  0.60365394  0.18722382     0.08800
C2122       C  0.80221129  0.46783401  0.21257564     0.05900
C2123       C  0.78727216  0.44293342  0.22653465    -0.10300
C2124       C  0.80179824  0.41687335  0.25146744     0.03400
C2125       C  0.83130549  0.41620954  0.26266510    -0.08800
C2126       C  0.84679063  0.44030296  0.24937253     0.05900
C2127       C  0.83229439  0.46700037  0.22477805    -0.08200
H2128       H  0.76439915  0.44305359  0.21747681     0.11500
H2129       H  0.84243289  0.39508418  0.28120963     0.09000
H2130       H  0.84444026  0.48542369  0.21453028     0.08800
Zn2131     Zn  0.96463818  0.36865806  0.26824726     1.49700
Zn2132     Zn  0.51532653  0.40448531  0.25277350     1.49400
Zn2133     Zn  0.99153390  0.45875041  0.29423764     1.49100
Zn2134     Zn  0.51914883  0.37034360  0.31935090     1.49500
O2135       O  0.99974089  0.40045538  0.28711110    -1.81400
O2136       O  0.95896088  0.35134335  0.22419571    -0.72000
O2137       O  0.51826315  0.46505772  0.24348467    -0.71800
O2138       O  0.94855065  0.46779782  0.27908221    -0.71300
O2139       O  0.49566966  0.37446111  0.21183271    -0.72000
O2140       O  0.93145852  0.40440456  0.26516566    -0.71600
O2141       O  0.49343750  0.49796734  0.26709271    -0.72200
O2142       O  0.52706510  0.40815494  0.35610205    -0.71600
O2143       O  0.55507557  0.38231449  0.27188669    -0.72400
O2144       O  0.50318127  0.46551252  0.33781831    -0.71700
O2145       O  0.55717110  0.35690472  0.31735070    -0.72200
O2146       O  0.50401186  0.66898324  0.33482710    -0.72100
O2147       O  0.96800778  0.66157287  0.28860106    -0.71900
C2148       C  0.97444996  0.35496773  0.20796572     0.79900
C2149       C  0.50848051  0.49826940  0.25018032     0.80400
C2150       C  0.92770744  0.44254226  0.26890674     0.79300
C2151       C  0.52010139  0.44457804  0.36023206     0.79700
C2152       C  0.56858443  0.36441587  0.29748745     0.80800
C2153       C  0.98488449  0.64356280  0.31253856     0.79900
C2154       C  0.69566826  0.67338125  0.38879124     0.05900
C2155       C  0.70596776  0.35369247  0.37370751    -0.10300
C2156       C  0.69166507  0.36951089  0.34371269     0.03400
C2157       C  0.66246179  0.36258953  0.32916156    -0.08800
C2158       C  0.64987830  0.68599734  0.34772095     0.05900
C2159       C  0.66639283  0.66554003  0.37490137    -0.08200
H2160       H  0.72839308  0.35979199  0.38535884     0.11500
H2161       H  0.65173964  0.37689734  0.30688799     0.09000
H2162       H  0.65606067  0.64562796  0.38643761     0.08800
C2163       C  0.93272886  0.64587849  0.13183847     0.05900
C2164       C  0.90424981  0.64579972  0.11183278    -0.10300
C2165       C  0.89473415  0.61924629  0.08597716     0.03400
C2166       C  0.91419300  0.59348333  0.08011513    -0.08800
C2167       C  0.94274773  0.59274219  0.10015912     0.05900
C2168       C  0.95176016  0.61890698  0.12604304    -0.08200
H2169       H  0.88672474  0.32085988  0.11723790     0.11500
H2170       H  0.90637702  0.57141608  0.06123601     0.09000
H2171       H  0.97319679  0.61660269  0.14252859     0.08800
Zn2172     Zn  0.72940566  0.56140185  0.08274396     1.49700
Zn2173     Zn  0.78312187  0.53954335  0.06832116     1.49400
Zn2174     Zn  0.72461042  0.53304293  0.01344161     1.49100
Zn2175     Zn  0.75090948  0.62256084  0.03915432     1.49500
O2176       O  0.74668374  0.56467436  0.05084646    -1.81400
O2177       O  0.75415156  0.53118084  0.12326950    -0.72000
O2178       O  0.78460626  0.48690782  0.04707308    -0.71800
O2179       O  0.68623049  0.52164473  0.01478007    -0.71300
O2180       O  0.79308933  0.52388949  0.11273625    -0.72000
O2181       O  0.69005336  0.53643861  0.06329009    -0.71600
O2182       O  0.73813606  0.47363561  0.49068945    -0.72200
O2183       O  0.73574669  0.62416577  0.48206597    -0.71600
O2184       O  0.81311166  0.57786175  0.06639385    -0.72400
O2185       O  0.71484684  0.56407880  0.46360841    -0.71700
O2186       O  0.79265931  0.63875633  0.05281790    -0.72200
O2187       O  0.73236299  0.66100923  0.06088943    -0.72100
O2188       O  0.72153369  0.61925453  0.09336252    -0.71900
C2189       C  0.77991971  0.52000724  0.13123539     0.79900
C2190       C  0.76781372  0.46630746  0.02436042     0.80400
C2191       C  0.67545132  0.52489734  0.03561013     0.79300
C2192       C  0.72060783  0.60129634  0.45948651     0.79700
C2193       C  0.81459566  0.61629239  0.06173504     0.80800
C2194       C  0.72232280  0.65496326  0.08220301     0.79900
C2195       C  0.54926052  0.52041048  0.42960573     0.05900
C2196       C  0.57695604  0.50651910  0.44588767    -0.10300
C2197       C  0.59477083  0.52638476  0.47308786     0.03400
C2198       C  0.58524250  0.55032153  0.99660447    -0.08800
C2199       C  0.55702834  0.57513809  0.46833850     0.05900
C2200       C  0.53947196  0.55489171  0.44101158    -0.08200
H2201       H  0.58540404  0.48159503  0.43646587     0.11500
H2202       H  0.59821995  0.56703238  0.01724129     0.09000
H2203       H  0.51867913  0.56690883  0.42797493     0.08800
C2204       C  0.80923804  0.67723204  0.44064772     0.05900
C2205       C  0.79431553  0.34995908  0.46240194    -0.10300
C2206       C  0.80743084  0.36865196  0.49186849     0.03400
C2207       C  0.82272415  0.38792525  0.00015631    -0.08800
C2208       C  0.84600622  0.70755060  0.48602969     0.05900
C2209       C  0.83787633  0.68214124  0.45952064    -0.08200
H2210       H  0.77246019  0.35618917  0.44862893     0.11500
H2211       H  0.83039327  0.41001647  0.01902229     0.09000
H2212       H  0.85385429  0.66776831  0.45264333     0.08800
C2213       C  0.68692713  0.45938051  0.13122506     0.05900
C2214       C  0.70332722  0.43849987  0.11740776    -0.10300
C2215       C  0.69158984  0.42531370  0.08637631     0.03400
C2216       C  0.66325412  0.43342165  0.06883256    -0.08800
C2217       C  0.64579017  0.45281741  0.08208687     0.05900
C2218       C  0.65799556  0.46652196  0.11345477    -0.08200
H2219       H  0.72527218  0.43188711  0.13102371     0.11500
H2220       H  0.65424168  0.42194067  0.04514325     0.09000
H2221       H  0.64511711  0.48081920  0.12464316     0.08800
Zn2222     Zn  0.95934968  0.43787969  0.01658914     1.49700
Zn2223     Zn  0.51395630  0.42188953  0.00131184     1.49400
Zn2224     Zn  0.51069857  0.43876482  0.07050371     1.49100
Zn2225     Zn  0.98528516  0.35270461  0.03970209     1.49500
O2226       O  0.99441612  0.41077366  0.03636518    -1.81400
O2227       O  0.94900677  0.45323214  0.45638933    -0.72000
O2228       O  0.55358422  0.44639481  0.02809334    -0.71800
O2229       O  0.49091942  0.48962874  0.07959325    -0.71300
O2230       O  0.49878001  0.44599891  0.46634088    -0.72000
O2231       O  0.95765210  0.49101686  0.03596257    -0.71600
O2232       O  0.54980156  0.45608301  0.07435228    -0.72200
O2233       O  0.49570836  0.33853209  0.07351772    -0.71600
O2234       O  0.52002342  0.36370665  0.98846531    -0.72400
O2235       O  0.51539713  0.39333663  0.10262434    -0.71700
O2236       O  0.49300844  0.64064748  0.01413257    -0.72200
O2237       O  0.94337805  0.34107307  0.02566687    -0.72100
O2238       O  0.92642055  0.40425917  0.01604767    -0.71900
C2239       C  0.96194897  0.45398450  0.43759569     0.79900
C2240       C  0.56426014  0.45698222  0.05691437     0.80400
C2241       C  0.97021620  0.50669660  0.06258134     0.79300
C2242       C  0.50926674  0.35490564  0.09993303     0.79700
C2243       C  0.51278430  0.64282204  0.00335922     0.80800
C2244       C  0.92280733  0.36583061  0.01836311     0.79900
C2245       C  0.61469977  0.45333226  0.06285924    -0.13700
C2246       C  0.59461683  0.46835697  0.07229726    -0.28900
H2247       H  0.60773597  0.43702336  0.04073273     0.15300
H2248       H  0.60056231  0.48404813  0.09448461     0.15900
C2249       C  0.89388494  0.34976409  0.01065640    -0.13700
C2250       C  0.87281626  0.37546398  0.00879424    -0.28900
H2251       H  0.88960442  0.31751585  0.00431381     0.15300
H2252       H  0.88073021  0.75052047  0.51098419     0.15900
C2253       C  0.52111795  0.60491890  0.99148522    -0.13700
C2254       C  0.54763620  0.60036111  0.99237213    -0.28900
H2255       H  0.50643872  0.59505787  0.47174001     0.15300
H2256       H  0.56331753  0.62426573  0.00318620     0.15900
C2257       C  0.64461746  0.51957145  0.02677528    -0.13700
C2258       C  0.62769926  0.51013299  0.99744598    -0.28900
H2259       H  0.63556929  0.52860840  0.04372580     0.15300
H2260       H  0.63403233  0.50241629  0.46995765     0.15900
C2261       C  0.77852452  0.42718116  0.01728220    -0.13700
C2262       C  0.77351622  0.41352834  0.98825450    -0.28900
H2263       H  0.79508736  0.41297092  0.03667357     0.15300
H2264       H  0.80530774  0.40895581  0.52912384     0.15900
C2265       C  0.70718181  0.39779570  0.07298859    -0.13700
C2266       C  0.72009458  0.36455800  0.08886498    -0.28900
H2267       H  0.70325761  0.39997141  0.04827910     0.15300
H2268       H  0.72113796  0.36021365  0.11259373     0.15900
C2269       C  0.86426340  0.61062553  0.06876858    -0.13700
C2270       C  0.84292535  0.63478001  0.06878936    -0.28900
H2271       H  0.85901471  0.58024894  0.05815248     0.15300
H2272       H  0.84667366  0.66642350  0.07692377     0.15900
C2273       C  0.96202226  0.56061348  0.09657526    -0.13700
C2274       C  0.95892688  0.54609752  0.06836351    -0.28900
H2275       H  0.97714316  0.54664066  0.11727709     0.15300
H2276       H  0.94439493  0.56139986  0.04792145     0.15900
C2277       C  0.71182517  0.65659326  0.42004212    -0.13700
C2278       C  0.70808397  0.61765583  0.42758985    -0.28900
H2279       H  0.72603680  0.67706040  0.43744026     0.15300
H2280       H  0.69424834  0.59715515  0.40977791     0.15900
C2281       C  0.59867514  0.35452165  0.30470232    -0.13700
C2282       C  0.61554632  0.34127498  0.33302850    -0.28900
H2283       H  0.60725616  0.36165864  0.28698304     0.15300
H2284       H  0.60974660  0.67671993  0.35521227     0.15900
C2285       C  0.53327301  0.46226127  0.39192076    -0.13700
C2286       C  0.53180186  0.50224404  0.39879825    -0.28900
H2287       H  0.54615158  0.44170688  0.40998621     0.15300
H2288       H  0.51858242  0.52265700  0.38096527     0.15900
C2289       C  0.96475702  0.33869678  0.17598583    -0.13700
C2290       C  0.93873690  0.32308067  0.16108768    -0.28900
H2291       H  0.97953636  0.34005537  0.16410034     0.15300
H2292       H  0.92628010  0.67213354  0.17274815     0.15900
C2293       C  0.87731475  0.43064153  0.25867689    -0.13700
C2294       C  0.89826188  0.45747507  0.26060304    -0.28900
H2295       H  0.88293914  0.39886580  0.26533444     0.15300
H2296       H  0.89384114  0.49000099  0.25629343     0.15900
C2297       C  0.78560456  0.49175324  0.18401878    -0.13700
C2298       C  0.79598500  0.50105186  0.16181990    -0.28900
H2299       H  0.76363482  0.49862680  0.17989681     0.15300
H2300       H  0.81738612  0.49207788  0.16507682     0.15900
C2301       C  0.53528367  0.34110246  0.15604703    -0.13700
C2302       C  0.51835351  0.32785749  0.12768267    -0.28900
H2303       H  0.54291317  0.37279254  0.15885344     0.15300
H2304       H  0.51489259  0.62366850  0.13574929     0.15900
C2305       C  0.53684471  0.54151382  0.22827747    -0.13700
C2306       C  0.51568336  0.53837816  0.23917215    -0.28900
H2307       H  0.54839414  0.51402057  0.22700440     0.15300
H2308       H  0.50550573  0.56609905  0.24284469     0.15900
C2309       C  0.62370197  0.62541985  0.24698574    -0.13700
C2310       C  0.63986813  0.60643626  0.27322965    -0.28900
H2311       H  0.63373654  0.64039504  0.23257948     0.15300
H2312       H  0.63038448  0.59330372  0.28877819     0.15900
C2313       C  0.77636376  0.63364541  0.39852337    -0.13700
C2314       C  0.80152221  0.65293912  0.41142846    -0.28900
H2315       H  0.76145769  0.63372432  0.41036543     0.15300
H2316       H  0.81708970  0.65051573  0.40047679     0.15900
C2317       C  0.69414271  0.50462217  0.17719984    -0.13700
C2318       C  0.70053381  0.47047622  0.16488960    -0.28900
H2319       H  0.67808268  0.52495806  0.16218040     0.15300
H2320       H  0.71786045  0.45160928  0.17937667     0.15900
C2321       C  0.72171769  0.42923878  0.34317673    -0.13700
C2322       C  0.70582350  0.39710076  0.32805022    -0.28900
H2323       H  0.72591172  0.43306654  0.36784208     0.15300
H2324       H  0.69870227  0.39595431  0.30282613     0.15900
C2325       C  0.76399096  0.36595106  0.24914284    -0.13700
C2326       C  0.78759575  0.38720864  0.26552425    -0.28900
H2327       H  0.75198102  0.37390136  0.22511428     0.15300
H2328       H  0.79950063  0.37787991  0.28930503     0.15900
C2329       C  0.84178673  0.50585233  0.30876145    -0.13700
C2330       C  0.86182941  0.53383262  0.30959785    -0.28900
H2331       H  0.84693345  0.47352046  0.31288752     0.15300
H2332       H  0.85521266  0.56533760  0.30306008     0.15900
C2333       C  0.95501413  0.47687698  0.38336574    -0.13700
C2334       C  0.94494551  0.46800486  0.40576572    -0.28900
H2335       H  0.97729088  0.47213290  0.38799127     0.15300
H2336       H  0.92311332  0.47512650  0.40196759     0.15900
C2337       C  0.95113113  0.58633712  0.30571385    -0.13700
C2338       C  0.97582788  0.60467696  0.32283708    -0.28900
H2339       H  0.93876324  0.59926246  0.28317335     0.15300
H2340       H  0.98837942  0.59332113  0.34578873     0.15900
C2341       C  0.94624855  0.49556146  0.87307660     0.05900
C2342       C  0.91644635  0.49239582  0.86196412    -0.10300
C2343       C  0.89961356  0.51395960  0.83551780     0.03400
C2344       C  0.91273767  0.53780260  0.81918572    -0.08800
C2345       C  0.94242635  0.54197534  0.83008302     0.05900
C2346       C  0.95893786  0.51979757  0.85659505    -0.08200
H2347       H  0.90603352  0.47427725  0.87441225     0.11500
H2348       H  0.89976739  0.55608383  0.79963578     0.09000
H2349       H  0.98158811  0.52279041  0.86541662     0.10800
Zn2350     Zn  0.78152594  0.59308410  0.80836131     1.49700
Zn2351     Zn  0.72177185  0.59424259  0.75112921     1.49400
Zn2352     Zn  0.75490360  0.50810809  0.77193903     1.49100
Zn2353     Zn  0.72722077  0.55415766  0.81597685     1.49500
O2354       O  0.74647986  0.56213625  0.78657691    -1.81400
O2355       O  0.78289848  0.64546781  0.78484089    -0.72000
O2356       O  0.71159285  0.56162261  0.71102102    -0.71800
O2357       O  0.79764250  0.50349355  0.78125156    -0.71300
O2358       O  0.74104386  0.64737150  0.74606670    -0.72000
O2359       O  0.81536695  0.55872891  0.81093410    -0.71600
O2360       O  0.73313280  0.50152533  0.72488382    -0.72200
O2361       O  0.72334628  0.49447806  0.82331212    -0.71600
O2362       O  0.68431897  0.60635156  0.75566838    -0.72400
O2363       O  0.74218611  0.46075766  0.79377897    -0.71700
O2364       O  0.68767769  0.57431253  0.79929360    -0.72200
O2365       O  0.74628709  0.58353421  0.85679760    -0.72100
O2366       O  0.78485813  0.61029248  0.85198118    -0.71900
C2367       C  0.76539500  0.66302262  0.76091592     0.79900
C2368       C  0.71697349  0.52550521  0.70414618     0.80400
C2369       C  0.81872642  0.52536831  0.79816162     0.79300
C2370       C  0.72937417  0.46101000  0.81298160     0.79700
C2371       C  0.67354695  0.59463095  0.77532854     0.80800
C2372       C  0.76899067  0.60470296  0.86763204     0.79900
C2373       C  0.55159789  0.63766481  0.69058540     0.05900
C2374       C  0.58013634  0.64449862  0.70846964    -0.10300
C2375       C  0.59520275  0.61669720  0.73147774     0.03400
C2376       C  0.58077095  0.58282463  0.73812407    -0.08800
C2377       C  0.55177386  0.57637816  0.72127095     0.05900
C2378       C  0.53729714  0.60355722  0.69709775    -0.08200
H2379       H  0.59600166  0.34616830  0.70437520     0.11500
H2380       H  0.59216069  0.55999596  0.75500031     0.09000
H2381       H  0.51528628  0.59775326  0.68328834     0.08800
C2382       C  0.79973289  0.45582544  0.69600485     0.05900
C2383       C  0.78350480  0.42924233  0.70676611    -0.10300
C2384       C  0.79618927  0.40191991  0.73107397     0.03400
C2385       C  0.82592194  0.40103582  0.74467706    -0.08800
C2386       C  0.84276476  0.42775667  0.73471344     0.05900
C2387       C  0.82956175  0.45563247  0.71050629    -0.08200
H2388       H  0.76080979  0.42813828  0.69500121     0.11500
H2389       H  0.83623914  0.37810215  0.76201299     0.09000
H2390       H  0.84240172  0.47533262  0.70191747     0.08800
Zn2391     Zn  0.96468664  0.37163098  0.75804586     1.49700
Zn2392     Zn  0.51026478  0.40421504  0.75453911     1.49400
Zn2393     Zn  0.98749353  0.45898425  0.79072541     1.49100
Zn2394     Zn  0.51849140  0.37118386  0.82327449     1.49500
O2395       O  0.99852139  0.40513073  0.77850756    -1.81400
O2396       O  0.96062406  0.35723347  0.71443378    -0.72000
O2397       O  0.51732202  0.46393803  0.74502373    -0.71800
O2398       O  0.94404306  0.46365981  0.77673735    -0.71300
O2399       O  0.48421484  0.37596955  0.71449234    -0.72000
O2400       O  0.92978310  0.40245769  0.75476755    -0.71600
O2401       O  0.50333267  0.50039733  0.77744140    -0.72200
O2402       O  0.52929209  0.40728251  0.86108382    -0.71600
O2403       O  0.54919249  0.37781392  0.77018897    -0.72400
O2404       O  0.50675713  0.46652789  0.84582194    -0.71700
O2405       O  0.55498890  0.35653922  0.81791026    -0.72200
O2406       O  0.51168554  0.66034199  0.82931586    -0.72100
O2407       O  0.97234467  0.64235214  0.78949050    -0.71900
C2408       C  0.97516952  0.36505090  0.69772538     0.79900
C2409       C  0.51434426  0.49839512  0.75671480     0.80400
C2410       C  0.92427045  0.43804317  0.76246144     0.79300
C2411       C  0.52346093  0.44356123  0.86698798     0.79700
C2412       C  0.56435124  0.36172289  0.79603491     0.80800
C2413       C  0.98802547  0.63041847  0.81643424     0.79900
C2414       C  0.70013668  0.66734840  0.89309231     0.05900
C2415       C  0.70169303  0.36666763  0.86928020    -0.10300
C2416       C  0.68544999  0.38470152  0.84080160     0.03400
C2417       C  0.65667862  0.37418158  0.82662825    -0.08800
C2418       C  0.65678275  0.67318203  0.84714378     0.05900
C2419       C  0.67112072  0.65942392  0.87761932    -0.08200
H2420       H  0.72338387  0.37678816  0.88134079     0.11500
H2421       H  0.64405716  0.39089386  0.80606399     0.09000
H2422       H  0.65924067  0.64476861  0.89016009     0.08800
C2423       C  0.93756357  0.63404352  0.62756538     0.05900
C2424       C  0.90860930  0.63027916  0.60924292    -0.10300
C2425       C  0.89964809  0.60744686  0.58140065     0.03400
C2426       C  0.91994144  0.58941740  0.57163854    -0.08800
C2427       C  0.94899496  0.59298272  0.58958708     0.05900
C2428       C  0.95752545  0.61478619  0.61766883    -0.08200
H2429       H  0.88704863  0.31757187  0.61124165     0.11500
H2430       H  0.91281402  0.56998757  0.55110259     0.09000
H2431       H  0.97957258  0.61455822  0.63260758     0.08800
Zn2432     Zn  0.73129267  0.55389029  0.57055119     1.49700
Zn2433     Zn  0.78300312  0.52564511  0.55222717     1.49400
Zn2434     Zn  0.72233731  0.52719941  0.50043500     1.49100
Zn2435     Zn  0.75471001  0.61284992  0.52863307     1.49500
O2436       O  0.74769254  0.55523571  0.53797831    -1.81400
O2437       O  0.75486309  0.51927142  0.60823958    -0.72000
O2438       O  0.78194369  0.47636552  0.52551798    -0.71800
O2439       O  0.68412517  0.51842245  0.50323117    -0.71300
O2440       O  0.79172764  0.50464760  0.59517171    -0.72000
O2441       O  0.68954954  0.53642015  0.55159174    -0.71600
O2442       O  0.74315963  0.47923112  0.00839126    -0.72200
O2443       O  0.73309070  0.63044725  0.99156868    -0.71600
O2444       O  0.81561504  0.56269052  0.55509269    -0.72400
O2445       O  0.71777958  0.56714894  0.97495725    -0.71700
O2446       O  0.79715258  0.62499599  0.54301124    -0.72200
O2447       O  0.73935372  0.65265552  0.55238860    -0.72100
O2448       O  0.73058937  0.61152728  0.58645169    -0.71900
C2449       C  0.77929661  0.50354263  0.61450837     0.79900
C2450       C  0.76287941  0.45873016  0.50264431     0.80400
C2451       C  0.67389669  0.52491281  0.52419976     0.79300
C2452       C  0.72128515  0.60482554  0.96948619     0.79700
C2453       C  0.81848393  0.60134691  0.55247241     0.80800
C2454       C  0.73228302  0.64728511  0.57593615     0.79900
C2455       C  0.55219753  0.51257000  0.94020460     0.05900
C2456       C  0.58011346  0.49975174  0.95639884    -0.10300
C2457       C  0.59688264  0.51861233  0.98451170     0.03400
C2458       C  0.58455415  0.56070472  0.48411463    -0.08800
C2459       C  0.55738860  0.56315970  0.98094439     0.05900
C2460       C  0.54087560  0.54408603  0.95275829    -0.08200
H2461       H  0.58953387  0.47703809  0.94610131     0.11500
H2462       H  0.59839217  0.57764166  0.50418986     0.09000
H2463       H  0.51979415  0.55519277  0.93974246     0.08800
C2464       C  0.80947716  0.66265075  0.94434805     0.05900
C2465       C  0.78488986  0.35945206  0.95557170    -0.10300
C2466       C  0.79368272  0.38513653  0.98196504     0.03400
C2467       C  0.83622629  0.36127420  0.50861291    -0.08800
C2468       C  0.84740440  0.68806377  0.99068377     0.05900
C2469       C  0.83807234  0.66366575  0.96373008    -0.08200
H2470       H  0.76303997  0.35951654  0.94010311     0.11500
H2471       H  0.84673214  0.37635171  0.53086538     0.09000
H2472       H  0.85328286  0.64775622  0.95648298     0.08800
C2473       C  0.69276391  0.45871250  0.62908194     0.05900
C2474       C  0.70714957  0.42939917  0.61820533    -0.10300
C2475       C  0.69490869  0.41319201  0.58796975     0.03400
C2476       C  0.66779383  0.42565826  0.56885775    -0.08800
C2477       C  0.65208331  0.45242636  0.57994690     0.05900
C2478       C  0.66528014  0.47040751  0.60973409    -0.08200
H2479       H  0.72796397  0.41938590  0.63323363     0.11500
H2480       H  0.65800254  0.41175053  0.54602175     0.09000
H2481       H  0.65394202  0.49182366  0.61864438     0.08800
Zn2482     Zn  0.96092346  0.44814712  0.50178320     1.49700
Zn2483     Zn  0.52174291  0.41472864  0.50694163     1.49400
Zn2484     Zn  0.51880203  0.43538426  0.57454956     1.49100
Zn2485     Zn  0.98644517  0.36313669  0.53116456     1.49500
O2486       O  0.99557381  0.41885590  0.51985405    -1.81400
O2487       O  0.95359413  0.45144207  0.97360608    -0.72000
O2488       O  0.56081719  0.44067867  0.53150000    -0.71800
O2489       O  0.49715071  0.48635085  0.57858108    -0.71300
O2490       O  0.49099049  0.45283875  0.95931645    -0.72000
O2491       O  0.96262413  0.50471460  0.51809719    -0.71600
O2492       O  0.55766849  0.45326565  0.57761893    -0.72200
O2493       O  0.50764338  0.33610873  0.58472267    -0.71600
O2494       O  0.52782331  0.35727023  0.49370275    -0.72400
O2495       O  0.52400476  0.39496113  0.60998086    -0.71700
O2496       O  0.49805571  0.65143515  0.50875608    -0.72200
O2497       O  0.94437961  0.35672598  0.52434345    -0.72100
O2498       O  0.92992015  0.42057221  0.51059620    -0.71900
C2499       C  0.96922498  0.45716059  0.95798678     0.79900
C2500       C  0.57171848  0.45319168  0.55974386     0.80400
C2501       C  0.97726910  0.52065490  0.54409099     0.79300
C2502       C  0.51955764  0.35617272  0.60991663     0.79700
C2503       C  0.51558500  0.65597153  0.49506230     0.80800
C2504       C  0.92539557  0.38428490  0.51785323     0.79900
C2505       C  0.62113192  0.45581705  0.56126543    -0.13700
C2506       C  0.60196117  0.46523147  0.57396165    -0.28900
H2507       H  0.61349939  0.44352349  0.53771654     0.15300
H2508       H  0.60896295  0.47576279  0.59786487     0.15900
C2509       C  0.89687175  0.37556478  0.51750732    -0.13700
C2510       C  0.88365193  0.33915140  0.50886129    -0.28900
H2511       H  0.88456928  0.40238814  0.51841204     0.15300
H2512       H  0.88318292  0.72847064  0.01636240     0.15900
C2513       C  0.52225396  0.61946852  0.47987429    -0.13700
C2514       C  0.54834012  0.61366415  0.47962351    -0.28900
H2515       H  0.50584710  0.57981319  0.98339817     0.15300
H2516       H  0.56472264  0.63653434  0.49072999     0.15900
C2517       C  0.64275387  0.52344274  0.51559524    -0.13700
C2518       C  0.62523142  0.51511934  0.48618634    -0.28900
H2519       H  0.63424071  0.53439878  0.53254885     0.15300
H2520       H  0.63715815  0.49932175  0.98124040     0.15900
C2521       C  0.77016619  0.42109066  0.48909300    -0.13700
C2522       C  0.79361217  0.39978701  0.50516062    -0.28900
H2523       H  0.75737013  0.41306216  0.46526957     0.15300
H2524       H  0.75665026  0.42686706  0.96867972     0.15900
C2525       C  0.70894519  0.38094399  0.57623091    -0.13700
C2526       C  0.72033456  0.34743424  0.59308671    -0.28900
H2527       H  0.70617492  0.38181308  0.55177184     0.15300
H2528       H  0.72063383  0.34466904  0.61664774     0.15900
C2529       C  0.86962689  0.59496979  0.56541075    -0.13700
C2530       C  0.84743463  0.61906250  0.56251126    -0.28900
H2531       H  0.86569076  0.56361610  0.55648780     0.15300
H2532       H  0.85072346  0.65130053  0.56925593     0.15900
C2533       C  0.96991894  0.56796795  0.58196702    -0.13700
C2534       C  0.96629364  0.55875173  0.55246147    -0.28900
H2535       H  0.98632703  0.55276215  0.60094139     0.15300
H2536       H  0.95008815  0.57464700  0.53370692     0.15900
C2537       C  0.71395805  0.65572775  0.92643680    -0.13700
C2538       C  0.71028647  0.61793972  0.93644743    -0.28900
H2539       H  0.72657181  0.67862317  0.94289461     0.15300
H2540       H  0.69821218  0.59516127  0.91938369     0.15900
C2541       C  0.59433632  0.35263001  0.80155388    -0.13700
C2542       C  0.61250575  0.34055337  0.82963919    -0.28900
H2543       H  0.60209804  0.36101712  0.78336289     0.15300
H2544       H  0.61539451  0.66698843  0.85211845     0.15900
C2545       C  0.53741501  0.45844271  0.89936566    -0.13700
C2546       C  0.53608810  0.49748443  0.90824290    -0.28900
H2547       H  0.55001719  0.43644523  0.91640901     0.15300
H2548       H  0.52337015  0.51952354  0.89158229     0.15900
C2549       C  0.96577574  0.34853090  0.66579791    -0.13700
C2550       C  0.93989035  0.33155191  0.65174839    -0.28900
H2551       H  0.98069732  0.34964020  0.65396127     0.15300
H2552       H  0.93110197  0.65307206  0.67039920     0.15900
C2553       C  0.87370121  0.42021477  0.74625731    -0.13700
C2554       C  0.89407307  0.44961349  0.75365952    -0.28900
H2555       H  0.87997319  0.38812182  0.74945881     0.15300
H2556       H  0.88853419  0.48190835  0.75292126     0.15900
C2557       C  0.78478191  0.48047134  0.66778818    -0.13700
C2558       C  0.79457460  0.48338643  0.64457965    -0.28900
H2559       H  0.76396552  0.49234374  0.66453887     0.15300
H2560       H  0.81468776  0.46935979  0.64733126     0.15900
C2561       C  0.54185198  0.34982875  0.66745394    -0.13700
C2562       C  0.52866285  0.33277487  0.63932917    -0.28900
H2563       H  0.54715107  0.38246018  0.66952909     0.15300
H2564       H  0.52099169  0.61847317  0.63094617     0.15900
C2565       C  0.53789175  0.53828804  0.72670358    -0.13700
C2566       C  0.52454485  0.53723897  0.74706637    -0.28900
H2567       H  0.54098009  0.51004777  0.71583226     0.15300
H2568       H  0.52235384  0.56570314  0.75831112     0.15900
C2569       C  0.62650198  0.62008618  0.74357383    -0.13700
C2570       C  0.64339115  0.60145529  0.76945483    -0.28900
H2571       H  0.63602834  0.63590623  0.72902282     0.15300
H2572       H  0.63452959  0.58717369  0.78515872     0.15900
C2573       C  0.77635468  0.62376189  0.89874830    -0.13700
C2574       C  0.80166768  0.64161984  0.91374454    -0.28900
H2575       H  0.76065894  0.62280497  0.90958445     0.15300
H2576       H  0.81780848  0.63993466  0.90352577     0.15900
C2577       C  0.70366407  0.51179337  0.67119863    -0.13700
C2578       C  0.70572098  0.47309850  0.66192264    -0.28900
H2579       H  0.69179451  0.53428925  0.65411178     0.15300
H2580       H  0.71764818  0.45089342  0.67905363     0.15900
C2581       C  0.72026913  0.42198063  0.82321128    -0.13700
C2582       C  0.69619327  0.42104574  0.82911924    -0.28900
H2583       H  0.73247960  0.39420129  0.82500446     0.15300
H2584       H  0.68300471  0.44826265  0.82438671     0.15900
C2585       C  0.78616815  0.35426070  0.76757804    -0.13700
C2586       C  0.77809220  0.37141264  0.73934265    -0.28900
H2587       H  0.80559714  0.36471096  0.78573006     0.15300
H2588       H  0.75816940  0.36190970  0.72148614     0.15900
C2589       C  0.84795527  0.51266016  0.80272240    -0.13700
C2590       C  0.86921742  0.51954462  0.83006987    -0.28900
H2591       H  0.85213118  0.49837889  0.78360651     0.15300
H2592       H  0.86426068  0.53077584  0.84962982     0.15900
C2593       C  0.96423012  0.47716719  0.90346582    -0.13700
C2594       C  0.95465461  0.47499567  0.92691541    -0.28900
H2595       H  0.98559102  0.46749545  0.90706599     0.15300
H2596       H  0.93380551  0.48696184  0.92329244     0.15900
C2597       C  0.95502706  0.57300726  0.81500048    -0.13700
C2598       C  0.97967850  0.59334352  0.82990619    -0.28900
H2599       H  0.94186622  0.58282828  0.79175752     0.15300
H2600       H  0.99265468  0.58561577  0.85365832     0.15900
C2601       C  0.95487717  0.84043935  0.38316541     0.05900
C2602       C  0.92541381  0.83945046  0.37534187    -0.10300
C2603       C  0.90735170  0.85704145  0.34772069     0.03400
C2604       C  0.91876043  0.87650317  0.32778358    -0.08800
C2605       C  0.94818393  0.87944582  0.33574576     0.05900
C2606       C  0.96602151  0.85985656  0.36297413    -0.08200
H2607       H  0.91640537  0.82503735  0.39083227     0.11500
H2608       H  0.90476653  0.89206428  0.30723975     0.09000
H2609       H  0.98845904  0.86104205  0.36910038     0.10800
Zn2610     Zn  0.78742822  0.92712934  0.31643391     1.49700
Zn2611     Zn  0.73313279  0.92727655  0.25214805     1.49400
Zn2612     Zn  0.76470584  0.84260410  0.28171871     1.49100
Zn2613     Zn  0.73122407  0.89144712  0.31729458     1.49500
O2614       O  0.75377428  0.89725621  0.29128060    -1.81400
O2615       O  0.79136958  0.97804422  0.29468479    -0.72000
O2616       O  0.72400422  0.88849901  0.21409948    -0.71800
O2617       O  0.80695655  0.84009826  0.29137604    -0.71300
O2618       O  0.75647024  0.97858346  0.24828155    -0.72000
O2619       O  0.82223841  0.89442476  0.32259895    -0.71600
O2620       O  0.74448672  0.83033176  0.23617201    -0.72200
O2621       O  0.72653444  0.83218243  0.32564875    -0.71600
O2622       O  0.69462188  0.94455509  0.25261515    -0.72400
O2623       O  0.75342426  0.79727128  0.30577941    -0.71700
O2624       O  0.69352126  0.91454004  0.29556629    -0.72200
O2625       O  0.74647877  0.92110035  0.35870891    -0.72100
O2626       O  0.78706924  0.94506206  0.35783468    -0.71900
C2627       C  0.77894346  0.99448504  0.26833655     0.79900
C2628       C  0.72949852  0.85045551  0.21226731     0.80400
C2629       C  0.82698497  0.86227657  0.30960435     0.79300
C2630       C  0.73679207  0.79844697  0.32078949     0.79700
C2631       C  0.68183624  0.93523225  0.27101279     0.80800
C2632       C  0.76940151  0.94120016  0.37135940     0.79900
C2633       C  0.55724954  0.97864028  0.19438985     0.05900
C2634       C  0.58668190  0.98385609  0.20612751    -0.10300
C2635       C  0.60389535  0.95539624  0.22690270     0.03400
C2636       C  0.59135678  0.92168499  0.23625323    -0.08800
C2637       C  0.56191566  0.91690522  0.22553973     0.05900
C2638       C  0.54474438  0.94556609  0.20449176    -0.08200
H2639       H  0.58819363  0.67633265  0.20590296     0.11500
H2640       H  0.60449563  0.89823881  0.25117465     0.09000
H2641       H  0.52199078  0.94111330  0.19488659     0.08800
C2642       C  0.80737438  0.79745973  0.21069253     0.05900
C2643       C  0.79243434  0.77115656  0.22369031    -0.10300
C2644       C  0.80694664  0.74649416  0.24951777     0.03400
C2645       C  0.83645366  0.74894447  0.26259470    -0.08800
C2646       C  0.85178786  0.77461997  0.25011635     0.05900
C2647       C  0.83725991  0.79965035  0.22456233    -0.08200
H2648       H  0.76967366  0.76892541  0.21302114     0.11500
H2649       H  0.84782718  0.72879492  0.28173167     0.09000
H2650       H  0.84931730  0.81898019  0.21472606     0.08800
Zn2651     Zn  0.96933408  0.71405855  0.26671408     1.49700
Zn2652     Zn  0.51943654  0.74880123  0.25846085     1.49400
Zn2653     Zn  0.99609675  0.79906359  0.30050369     1.49100
Zn2654     Zn  0.52327010  0.71903414  0.32541071     1.49500
O2655       O  0.00432439  0.74425022  0.28710407    -1.81400
O2656       O  0.96304278  0.69922685  0.22274993    -0.72000
O2657       O  0.52545005  0.80729816  0.24798424    -0.71800
O2658       O  0.95314407  0.80828207  0.28688481    -0.71300
O2659       O  0.49812254  0.71828462  0.21888809    -0.72000
O2660       O  0.93662902  0.74756969  0.26543576    -0.71600
O2661       O  0.50527824  0.84567128  0.27381951    -0.72200
O2662       O  0.53172125  0.75709116  0.36178258    -0.71600
O2663       O  0.55789918  0.72345956  0.27660602    -0.72400
O2664       O  0.50948345  0.81567735  0.34347678    -0.71700
O2665       O  0.56078249  0.70237689  0.32338578    -0.72200
O2666       O  0.50284216  0.98792320  0.32752235    -0.72100
O2667       O  0.97469662  0.97264380  0.28532980    -0.71900
C2668       C  0.97761129  0.70419128  0.20575079     0.79900
C2669       C  0.51893347  0.84230559  0.25567548     0.80400
C2670       C  0.93251021  0.78370232  0.27334212     0.79300
C2671       C  0.52531020  0.79376545  0.36596783     0.79700
C2672       C  0.57152955  0.70676304  0.30259348     0.80800
C2673       C  0.99094809  0.96299604  0.31270193     0.79900
C2674       C  0.69346475  0.99563413  0.39012356     0.05900
C2675       C  0.70852572  0.70163134  0.37483978    -0.10300
C2676       C  0.69219343  0.72217207  0.34752941     0.03400
C2677       C  0.66310550  0.71405495  0.33412781    -0.08800
C2678       C  0.64946297  0.00643162  0.34535776     0.05900
C2679       C  0.66400488  0.98988440  0.37509894    -0.08200
H2680       H  0.73070607  0.70946660  0.38609136     0.11500
H2681       H  0.65060332  0.73232338  0.31438480     0.09000
H2682       H  0.65209095  0.97489586  0.38743863     0.08800
C2683       C  0.93707316  0.97311747  0.12139226     0.05900
C2684       C  0.90830312  0.97310951  0.10214877    -0.10300
C2685       C  0.89818700  0.94755044  0.07573082     0.03400
C2686       C  0.91729928  0.92286286  0.06833864    -0.08800
C2687       C  0.94613288  0.92214262  0.08741318     0.05900
C2688       C  0.95583083  0.94772950  0.11366004    -0.08200
H2689       H  0.88939381  0.66448230  0.11772725     0.11500
H2690       H  0.90892176  0.90119742  0.04928234     0.09000
H2691       H  0.97757339  0.94545070  0.12917877     0.08800
Zn2692     Zn  0.73551085  0.88772472  0.08156796     1.49700
Zn2693     Zn  0.78858828  0.86572810  0.06568862     1.49400
Zn2694     Zn  0.72875552  0.85693254  0.01273162     1.49100
Zn2695     Zn  0.75489074  0.94730221  0.03634101     1.49500
O2696       O  0.75174631  0.88981225  0.04895056    -1.81400
O2697       O  0.75991078  0.85494609  0.12026069    -0.72000
O2698       O  0.78988261  0.81285080  0.04448173    -0.71800
O2699       O  0.69040237  0.84741640  0.01503425    -0.71300
O2700       O  0.79950474  0.85100416  0.11048012    -0.72000
O2701       O  0.69413033  0.86888370  0.06218699    -0.71600
O2702       O  0.74136275  0.80668873  0.50346002    -0.72200
O2703       O  0.73154879  0.95658781  0.48700263    -0.71600
O2704       O  0.81787016  0.90442485  0.06207625    -0.72400
O2705       O  0.71310218  0.89425286  0.47166853    -0.71700
O2706       O  0.79619773  0.96403859  0.04641036    -0.72200
O2707       O  0.73892034  0.98615735  0.06015842    -0.72100
O2708       O  0.73324979  0.94541330  0.09632480    -0.71900
C2709       C  0.78604664  0.84561127  0.12857666     0.79900
C2710       C  0.77281283  0.79137238  0.02251582     0.80400
C2711       C  0.67927535  0.85572808  0.03497809     0.79300
C2712       C  0.71678733  0.93165838  0.46572083     0.79700
C2713       C  0.81852853  0.94242141  0.05557964     0.80800
C2714       C  0.73292073  0.98085461  0.08444128     0.79900
C2715       C  0.55259941  0.86589226  0.43742205     0.05900
C2716       C  0.57954811  0.85043547  0.45472287    -0.10300
C2717       C  0.59655743  0.86840968  0.48306096     0.03400
C2718       C  0.59063604  0.89463243  0.99141781    -0.08800
C2719       C  0.55908174  0.91806212  0.47756778     0.05900
C2720       C  0.54244279  0.89964082  0.44906519    -0.08200
H2721       H  0.58820689  0.82581863  0.44523417     0.11500
H2722       H  0.60336963  0.90948336  0.01305948     0.09000
H2723       H  0.52206286  0.91246360  0.43538347     0.08800
C2724       C  0.81070308  0.99559302  0.44872324     0.05900
C2725       C  0.78866311  0.69830224  0.44846344    -0.10300
C2726       C  0.79625521  0.72249187  0.47537957     0.03400
C2727       C  0.82779431  0.71072641  0.99862997    -0.08800
C2728       C  0.85282088  0.00905054  0.49431329     0.05900
C2729       C  0.83947221  0.98964627  0.46578557    -0.08200
H2730       H  0.76685115  0.69723511  0.43308558     0.11500
H2731       H  0.83572163  0.73151028  0.01831447     0.09000
H2732       H  0.85207256  0.97217272  0.45565185     0.08800
C2733       C  0.68820906  0.81514069  0.12729577     0.05900
C2734       C  0.70584745  0.78742721  0.11951855    -0.10300
C2735       C  0.69449521  0.76027452  0.09429359     0.03400
C2736       C  0.66549833  0.76101667  0.07650644    -0.08800
C2737       C  0.64749823  0.78820530  0.08369397     0.05900
C2738       C  0.65919162  0.81603942  0.10874881    -0.08200
H2739       H  0.72825576  0.78636293  0.13332478     0.11500
H2740       H  0.65678061  0.73926487  0.05749177     0.09000
H2741       H  0.64577335  0.83760192  0.11455522     0.08800
Zn2742     Zn  0.96369671  0.75831854  0.01022317     1.49700
Zn2743     Zn  0.51917108  0.73652045  0.01059705     1.49400
Zn2744     Zn  0.51281573  0.76202067  0.07623004     1.49100
Zn2745     Zn  0.99018225  0.67602224  0.03946064     1.49500
O2746       O  0.99881632  0.73355741  0.03398385    -1.81400
O2747       O  0.96550072  0.80398197  0.48475273    -0.72000
O2748       O  0.55733375  0.76368381  0.03594308    -0.71800
O2749       O  0.49144848  0.81351945  0.08056891    -0.71300
O2750       O  0.50166935  0.78403134  0.46980181    -0.72000
O2751       O  0.96089581  0.81431562  0.02570606    -0.71600
O2752       O  0.55216073  0.77990657  0.08052104    -0.72200
O2753       O  0.49725245  0.66348797  0.08410111    -0.71600
O2754       O  0.52560534  0.67668426  0.00266628    -0.72400
O2755       O  0.51691120  0.72001603  0.11084055    -0.71700
O2756       O  0.50395400  0.97887878  0.01677538    -0.72200
O2757       O  0.94828594  0.66340322  0.02477711    -0.72100
O2758       O  0.93081098  0.72574325  0.01127841    -0.71900
C2759       C  0.98063966  0.80579164  0.46821036     0.79900
C2760       C  0.56707755  0.77854369  0.06356460     0.80400
C2761       C  0.97198113  0.83153582  0.05210133     0.79300
C2762       C  0.51053095  0.68170728  0.10980517     0.79700
C2763       C  0.51941662  0.98640753  0.00103826     0.80800
C2764       C  0.92746961  0.68774600  0.01566000     0.79900
C2765       C  0.61650841  0.78417592  0.06565859    -0.13700
C2766       C  0.59682873  0.79290724  0.07776990    -0.28900
H2767       H  0.60989131  0.76838699  0.04334771     0.15300
H2768       H  0.60320006  0.80635770  0.10083807     0.15900
C2769       C  0.89857667  0.67167244  0.00825896    -0.13700
C2770       C  0.87774396  0.69744555  0.00707272    -0.28900
H2771       H  0.89406070  0.63962200  0.00136883     0.15300
H2772       H  0.89543043  0.98261074  0.50445199     0.15900
C2773       C  0.52798200  0.95123870  0.98622105    -0.13700
C2774       C  0.55428033  0.94799554  0.98607184    -0.28900
H2775       H  0.50767226  0.93617449  0.47931901     0.15300
H2776       H  0.56991096  0.97169506  0.99748111     0.15900
C2777       C  0.64796330  0.85508229  0.02500168    -0.13700
C2778       C  0.63140500  0.84782418  0.99503419    -0.28900
H2779       H  0.63878104  0.86661336  0.04120757     0.15300
H2780       H  0.63538212  0.84123116  0.48127266     0.15900
C2781       C  0.78382146  0.75238916  0.01542819    -0.13700
C2782       C  0.77893965  0.73871801  0.98640613    -0.28900
H2783       H  0.80035916  0.73828493  0.03487772     0.15300
H2784       H  0.75900355  0.76337273  0.46283133     0.15900
C2785       C  0.71229217  0.72904539  0.08720139    -0.13700
C2786       C  0.70950264  0.68915576  0.09340652    -0.28900
H2787       H  0.72627058  0.73852157  0.07533532     0.15300
H2788       H  0.69597293  0.68097556  0.10617363     0.15900
C2789       C  0.86765045  0.93779813  0.06007187    -0.13700
C2790       C  0.84637585  0.96157722  0.06072950    -0.28900
H2791       H  0.86247517  0.90697460  0.05026161     0.15300
H2792       H  0.85002321  0.99354696  0.06809241     0.15900
C2793       C  0.96494434  0.88948784  0.08352794    -0.13700
C2794       C  0.96013726  0.87147678  0.05590769    -0.28900
H2795       H  0.98138698  0.87766412  0.10421543     0.15300
H2796       H  0.94458937  0.88444973  0.03506370     0.15900
C2797       C  0.70854158  0.98180332  0.42265889    -0.13700
C2798       C  0.70257009  0.94573862  0.43327192    -0.28900
H2799       H  0.72558400  0.00106521  0.43786813     0.15300
H2800       H  0.68683031  0.92523325  0.41739185     0.15900
C2801       C  0.60112140  0.69518216  0.30906547    -0.13700
C2802       C  0.61855659  0.68384342  0.33758307    -0.28900
H2803       H  0.60937473  0.70057763  0.29077167     0.15300
H2804       H  0.60770902  0.99639026  0.34917957     0.15900
C2805       C  0.53754984  0.81021872  0.39799271    -0.13700
C2806       C  0.53642702  0.84993660  0.40562517    -0.28900
H2807       H  0.54906986  0.78857794  0.41598420     0.15300
H2808       H  0.52451176  0.87171229  0.38805305     0.15900
C2809       C  0.96719994  0.68688491  0.17406387    -0.13700
C2810       C  0.94136510  0.66968759  0.16115936    -0.28900
H2811       H  0.98130273  0.68705959  0.16131855     0.15300
H2812       H  0.93004802  0.99790910  0.16242451     0.15900
C2813       C  0.88251751  0.76739011  0.26028070    -0.13700
C2814       C  0.90282212  0.79655584  0.26588670    -0.28900
H2815       H  0.88872806  0.73528568  0.26398814     0.15300
H2816       H  0.89760930  0.82900074  0.26470190     0.15900
C2817       C  0.79124660  0.81973689  0.18137534    -0.13700
C2818       C  0.80205098  0.82737359  0.15933290    -0.28900
H2819       H  0.76931334  0.82696677  0.17663183     0.15300
H2820       H  0.82359301  0.81833225  0.16323825     0.15900
C2821       C  0.53490013  0.67145040  0.16684213    -0.13700
C2822       C  0.51937565  0.65650882  0.13850667    -0.28900
H2823       H  0.54115567  0.70374750  0.16926714     0.15300
H2824       H  0.52155808  0.95533994  0.13888715     0.15900
C2825       C  0.55008278  0.87943786  0.23450272    -0.13700
C2826       C  0.52793547  0.87999352  0.24378810    -0.28900
H2827       H  0.56169778  0.85102557  0.23626500     0.15300
H2828       H  0.51774358  0.90892759  0.24478171     0.15900
C2829       C  0.63492113  0.95819262  0.23581197    -0.13700
C2830       C  0.65214257  0.94579387  0.26387662    -0.28900
H2831       H  0.64347021  0.96749254  0.21838249     0.15300
H2832       H  0.64328201  0.93810818  0.28138313     0.15900
C2833       C  0.77581558  0.96006399  0.40242388    -0.13700
C2834       C  0.80022208  0.98070720  0.41625666    -0.28900
H2835       H  0.76126176  0.95543392  0.41449747     0.15300
H2836       H  0.81503746  0.98333281  0.40428163     0.15900
C2837       C  0.71853455  0.82756846  0.18233509    -0.13700
C2838       C  0.69939545  0.84180382  0.15563184    -0.28900
H2839       H  0.72563899  0.79609379  0.18283776     0.15300
H2840       H  0.69015834  0.87189829  0.15528037     0.15900
C2841       C  0.72844155  0.76003619  0.33250821    -0.13700
C2842       C  0.70326231  0.75813354  0.33584804    -0.28900
H2843       H  0.74205517  0.73333405  0.33718903     0.15300
H2844       H  0.68909070  0.78417279  0.32834767     0.15900
C2845       C  0.76878592  0.69506165  0.24618195    -0.13700
C2846       C  0.79293922  0.71521795  0.26260160    -0.28900
H2847       H  0.75638434  0.70396800  0.22249959     0.15300
H2848       H  0.80493699  0.70490470  0.28610007     0.15900
C2849       C  0.85651966  0.85165577  0.31517555    -0.13700
C2850       C  0.87706217  0.86066001  0.34248047    -0.28900
H2851       H  0.86161270  0.83763865  0.29658064     0.15300
H2852       H  0.87154586  0.87164272  0.36174171     0.15900
C2853       C  0.97382036  0.82260760  0.41311881    -0.13700
C2854       C  0.96848619  0.82921250  0.43910117    -0.28900
H2855       H  0.99086600  0.80257187  0.41345226     0.15300
H2856       H  0.95142606  0.84989561  0.43793863     0.15900
C2857       C  0.95920882  0.90672339  0.31669762    -0.13700
C2858       C  0.98435203  0.92667030  0.32828435    -0.28900
H2859       H  0.94445042  0.91526865  0.29381044     0.15300
H2860       H  0.99886450  0.92043560  0.35171798     0.15900
C2861       C  0.94959000  0.84164881  0.88176437     0.05900
C2862       C  0.92009884  0.83570961  0.87242767    -0.10300
C2863       C  0.90134208  0.85563799  0.84613173     0.03400
C2864       C  0.91226710  0.88189926  0.82896668    -0.08800
C2865       C  0.94148359  0.89015636  0.83879336     0.05900
C2866       C  0.95995859  0.86959351  0.86520625    -0.08200
H2867       H  0.91152338  0.81687705  0.88630750     0.11500
H2868       H  0.89782960  0.89843538  0.80926590     0.09000
H2869       H  0.98239102  0.87527893  0.87321451     0.10800
Zn2870     Zn  0.78123498  0.92794533  0.81199472     1.49700
Zn2871     Zn  0.72294971  0.92209882  0.75462630     1.49400
Zn2872     Zn  0.75748586  0.83859018  0.77975902     1.49100
Zn2873     Zn  0.72843438  0.88866003  0.82139120     1.49500
O2874       O  0.74765652  0.89362213  0.79173631    -1.81400
O2875       O  0.78114264  0.97839194  0.78638563    -0.72000
O2876       O  0.71294362  0.88579620  0.71682694    -0.71800
O2877       O  0.80079829  0.83770443  0.79008217    -0.71300
O2878       O  0.74074235  0.97394471  0.74579138    -0.72000
O2879       O  0.81596900  0.89621502  0.81658412    -0.71600
O2880       O  0.73599103  0.82715045  0.73234868    -0.72200
O2881       O  0.72961633  0.83040321  0.83519256    -0.71600
O2882       O  0.68636565  0.93696597  0.75884815    -0.72400
O2883       O  0.74690766  0.79333866  0.80568714    -0.71700
O2884       O  0.68805623  0.90708497  0.80275839    -0.72200
O2885       O  0.74638168  0.92245597  0.86031648    -0.72100
O2886       O  0.78487287  0.94769607  0.85464689    -0.71900
C2887       C  0.76395439  0.99238706  0.76073843     0.79900
C2888       C  0.71912707  0.84970844  0.71092293     0.80400
C2889       C  0.82079890  0.86223819  0.80588258     0.79300
C2890       C  0.73675264  0.79609188  0.82723954     0.79700
C2891       C  0.67493266  0.92749578  0.77832697     0.80800
C2892       C  0.76911977  0.94356391  0.87047569     0.79900
C2893       C  0.55665375  0.99036653  0.69465634     0.05900
C2894       C  0.58601033  0.99119601  0.71052393    -0.10300
C2895       C  0.59896805  0.96329492  0.73451465     0.03400
C2896       C  0.58191617  0.93582875  0.74362272    -0.08800
C2897       C  0.55242607  0.93526411  0.72837974     0.05900
C2898       C  0.53982809  0.96241536  0.70376892    -0.08200
H2899       H  0.59126208  0.67012393  0.70282351     0.11500
H2900       H  0.59131501  0.91326163  0.76153110     0.09000
H2901       H  0.51724281  0.96069422  0.69115718     0.08800
C2902       C  0.80580110  0.80832039  0.71136316     0.05900
C2903       C  0.79335641  0.77921486  0.72512450    -0.10300
C2904       C  0.81004866  0.75560905  0.75073319     0.03400
C2905       C  0.83935176  0.76276498  0.76313232    -0.08800
C2906       C  0.85230588  0.79139186  0.74957773     0.05900
C2907       C  0.83533783  0.81504886  0.72445094    -0.08200
H2908       H  0.77085679  0.77422051  0.71513581     0.11500
H2909       H  0.85234333  0.74477218  0.78284295     0.09000
H2910       H  0.84541494  0.83742133  0.71438263     0.08800
Zn2911     Zn  0.97146378  0.69411042  0.76554926     1.49700
Zn2912     Zn  0.52717176  0.73692465  0.75325479     1.49400
Zn2913     Zn  0.99038231  0.78553410  0.79445287     1.49100
Zn2914     Zn  0.53034754  0.71225512  0.82106463     1.49500
O2915       O  0.00354654  0.73080912  0.78547221    -1.81400
O2916       O  0.96651288  0.67948226  0.72173652    -0.72000
O2917       O  0.53541757  0.79374628  0.74276514    -0.71800
O2918       O  0.94683108  0.78493385  0.78272704    -0.71300
O2919       O  0.50443782  0.70835342  0.71311579    -0.72000
O2920       O  0.93651600  0.72123603  0.76396081    -0.71600
O2921       O  0.51633188  0.83686334  0.76689458    -0.72200
O2922       O  0.53731360  0.75110934  0.85705864    -0.71600
O2923       O  0.56504409  0.70970819  0.77180834    -0.72400
O2924       O  0.51778565  0.81094950  0.83749301    -0.71700
O2925       O  0.56844850  0.69651773  0.82020633    -0.72200
O2926       O  0.50425954  0.99052816  0.82906315    -0.72100
O2927       O  0.96738246  0.98991575  0.79172579    -0.71900
C2928       C  0.98134770  0.68682542  0.70530081     0.79900
C2929       C  0.53028218  0.83000775  0.74935475     0.80400
C2930       C  0.92900216  0.75572415  0.77099724     0.79300
C2931       C  0.53191538  0.78854689  0.86064825     0.79700
C2932       C  0.57898246  0.69678173  0.79904543     0.80800
C2933       C  0.98407535  0.97800216  0.81831878     0.79900
C2934       C  0.69584952  0.99188397  0.89247876     0.05900
C2935       C  0.71499690  0.68932568  0.87748105    -0.10300
C2936       C  0.70127832  0.70177309  0.84635063     0.03400
C2937       C  0.67237105  0.69281486  0.83126530    -0.08800
C2938       C  0.65110706  0.00010195  0.84861355     0.05900
C2939       C  0.66646859  0.98512610  0.87854277    -0.08200
H2940       H  0.73710655  0.69673921  0.88932316     0.11500
H2941       H  0.66189526  0.70453746  0.80802967     0.09000
H2942       H  0.65527663  0.97035495  0.89177315     0.08800
C2943       C  0.93264723  0.97198788  0.62825041     0.05900
C2944       C  0.90450087  0.98042978  0.61017174    -0.10300
C2945       C  0.89167747  0.96352981  0.58045887     0.03400
C2946       C  0.90793198  0.93878749  0.56841345    -0.08800
C2947       C  0.93603097  0.92875236  0.58665074     0.05900
C2948       C  0.94844810  0.94614414  0.61652125    -0.08200
H2949       H  0.89307633  0.64283644  0.61770710     0.11500
H2950       H  0.89848572  0.92561112  0.54536053     0.09000
H2951       H  0.96987388  0.93874592  0.63110779     0.08800
Zn2952     Zn  0.73214939  0.89438236  0.57979844     1.49700
Zn2953     Zn  0.78236401  0.86341770  0.56367620     1.49400
Zn2954     Zn  0.72307667  0.86033809  0.51063293     1.49100
Zn2955     Zn  0.75452460  0.94849724  0.53338921     1.49500
O2956       O  0.74753680  0.89244088  0.54651065    -1.81400
O2957       O  0.75576501  0.86278035  0.61965123    -0.72000
O2958       O  0.78112411  0.80860044  0.54493896    -0.71800
O2959       O  0.68534555  0.85179524  0.51510899    -0.71300
O2960       O  0.79467990  0.85465872  0.60916289    -0.72000
O2961       O  0.69060767  0.87731403  0.56176149    -0.71600
O2962       O  0.74761765  0.80319651  0.00742404    -0.72200
O2963       O  0.73375232  0.95430015  0.98954094    -0.71600
O2964       O  0.81245680  0.89314770  0.55500399    -0.72400
O2965       O  0.71973728  0.89025692  0.97369739    -0.71700
O2966       O  0.79648262  0.95592081  0.53910512    -0.72200
O2967       O  0.74283129  0.99204377  0.55861107    -0.72100
O2968       O  0.73196742  0.95343012  0.59270212    -0.71900
C2969       C  0.78168751  0.85240541  0.62791639     0.79900
C2970       C  0.76496949  0.79104649  0.52030704     0.80400
C2971       C  0.67506384  0.86256946  0.53535043     0.79300
C2972       C  0.72151919  0.92827891  0.96793991     0.79700
C2973       C  0.81605487  0.92912298  0.54646429     0.80800
C2974       C  0.73510276  0.98844330  0.58192746     0.79900
C2975       C  0.55827649  0.86009122  0.93312142     0.05900
C2976       C  0.58506137  0.84425606  0.95093428    -0.10300
C2977       C  0.60143432  0.86117221  0.98004031     0.03400
C2978       C  0.58617666  0.90250049  0.49428527    -0.08800
C2979       C  0.56389803  0.91076806  0.97418726     0.05900
C2980       C  0.54781043  0.89335636  0.94503204    -0.08200
H2981       H  0.59404762  0.82009370  0.94139755     0.11500
H2982       H  0.59944850  0.91816488  0.51531709     0.09000
H2983       H  0.52760276  0.90653112  0.93117735     0.08800
C2984       C  0.81012166  0.00536533  0.94467425     0.05900
C2985       C  0.78996082  0.68587992  0.95260818    -0.10300
C2986       C  0.79883903  0.70980858  0.97992837     0.03400
C2987       C  0.82510585  0.72730138  0.49390612    -0.08800
C2988       C  0.84806154  0.03200136  0.99062167     0.05900
C2989       C  0.83865085  0.00607223  0.96448411    -0.08200
H2990       H  0.76832246  0.68728629  0.93703880     0.11500
H2991       H  0.83147940  0.74811953  0.51365976     0.09000
H2992       H  0.85374633  0.98844085  0.95818446     0.08800
C2993       C  0.69752359  0.78669559  0.63369767     0.05900
C2994       C  0.71266027  0.76140726  0.62072780    -0.10300
C2995       C  0.70043869  0.74784908  0.58970009     0.03400
C2996       C  0.67274836  0.75917095  0.57167602    -0.08800
C2997       C  0.65640146  0.78176761  0.58464053     0.05900
C2998       C  0.66936046  0.79692526  0.61540752    -0.08200
H2999       H  0.73396229  0.75217920  0.63479864     0.11500
H3000       H  0.66306766  0.74717739  0.54819570     0.09000
H3001       H  0.65736302  0.81520066  0.62565574     0.08800
Zn3002     Zn  0.96756606  0.77922146  0.52442799     1.49700
Zn3003     Zn  0.52352707  0.74886275  0.50980283     1.49400
Zn3004     Zn  0.52283935  0.76243741  0.58057312     1.49100
Zn3005     Zn  0.98995413  0.68917654  0.54353192     1.49500
O3006       O  0.00152797  0.74684008  0.54146599    -1.81400
O3007       O  0.95917561  0.76365009  0.96606745    -0.72000
O3008       O  0.56400838  0.77062254  0.53603828    -0.71800
O3009       O  0.50765995  0.81404763  0.59440756    -0.71300
O3010       O  0.49981279  0.76300190  0.96681755    -0.72000
O3011       O  0.96631502  0.82618445  0.55141461    -0.71600
O3012       O  0.56209014  0.77540577  0.58349890    -0.72200
O3013       O  0.50341925  0.66347969  0.58078629    -0.71600
O3014       O  0.52768143  0.69063507  0.49474183    -0.72400
O3015       O  0.52508809  0.71639218  0.61090823    -0.71700
O3016       O  0.49670455  0.99398072  0.51418009    -0.72200
O3017       O  0.94724509  0.68173726  0.52840651    -0.72100
O3018       O  0.93223351  0.74563566  0.51629143    -0.71900
C3019       C  0.97676932  0.77263170  0.95336097     0.79900
C3020       C  0.57575892  0.77790153  0.56532280     0.80400
C3021       C  0.98178825  0.83851273  0.57840962     0.79300
C3022       C  0.51723646  0.67869237  0.60751018     0.79700
C3023       C  0.51491793  0.99798920  0.50124164     0.80800
C3024       C  0.92725107  0.70751177  0.51838394     0.79900
C3025       C  0.62526802  0.78414918  0.56651040    -0.13700
C3026       C  0.60631757  0.78756939  0.58040317    -0.28900
H3027       H  0.61762185  0.77689895  0.54182310     0.15300
H3028       H  0.61367498  0.79256718  0.60531201     0.15900
C3029       C  0.89759335  0.69269956  0.50741038    -0.13700
C3030       C  0.87610331  0.71886365  0.50292575    -0.28900
H3031       H  0.89328731  0.66030728  0.50154761     0.15300
H3032       H  0.88405928  0.07156466  0.01700695     0.15900
C3033       C  0.52309021  0.96100624  0.48788993    -0.13700
C3034       C  0.54970866  0.95592224  0.48893862    -0.28900
H3035       H  0.51321835  0.92556157  0.97794714     0.15300
H3036       H  0.56568313  0.97916167  0.50043392     0.15900
C3037       C  0.64391500  0.86288241  0.52658961    -0.13700
C3038       C  0.62655752  0.85511705  0.49708432    -0.28900
H3039       H  0.63552114  0.87538866  0.54318866     0.15300
H3040       H  0.64099053  0.83475545  0.97963275     0.15900
C3041       C  0.77617729  0.75361182  0.51122270    -0.13700
C3042       C  0.77445172  0.74694314  0.48192613    -0.28900
H3043       H  0.79191171  0.73688622  0.52989341     0.15300
H3044       H  0.76211272  0.75219624  0.96686018     0.15900
C3045       C  0.71477084  0.71788636  0.57645703    -0.13700
C3046       C  0.72497815  0.68269638  0.59143258    -0.28900
H3047       H  0.71245898  0.72124352  0.55224038     0.15300
H3048       H  0.72450398  0.67774995  0.61450910     0.15900
C3049       C  0.86046971  0.96769342  0.56522292    -0.13700
C3050       C  0.84436011  0.93834073  0.54651639    -0.28900
H3051       H  0.85015106  0.99021035  0.57480676     0.15300
H3052       H  0.85421844  0.91330819  0.53887599     0.15900
C3053       C  0.95041206  0.89739842  0.57428635    -0.13700
C3054       C  0.97282170  0.87483426  0.59172114    -0.28900
H3055       H  0.94023788  0.88979327  0.54975595     0.15300
H3056       H  0.98357418  0.88091251  0.61633505     0.15900
C3057       C  0.71161476  0.97907589  0.92504705    -0.13700
C3058       C  0.70768818  0.94170274  0.93532957    -0.28900
H3059       H  0.72712659  0.00021601  0.94048961     0.15300
H3060       H  0.69349987  0.91983088  0.91906989     0.15900
C3061       C  0.60866992  0.68465109  0.80642016    -0.13700
C3062       C  0.62526031  0.67294810  0.83522116    -0.28900
H3063       H  0.61732514  0.68923496  0.78841546     0.15300
H3064       H  0.61032579  0.99778839  0.85557713     0.15900
C3065       C  0.54355540  0.80508690  0.89284728    -0.13700
C3066       C  0.54251727  0.84475642  0.90082294    -0.28900
H3067       H  0.55465706  0.78326332  0.91089620     0.15300
H3068       H  0.53070712  0.86671319  0.88329639     0.15900
C3069       C  0.97190174  0.67101573  0.67313866    -0.13700
C3070       C  0.94625912  0.65348011  0.65880402    -0.28900
H3071       H  0.98626369  0.67436932  0.66083612     0.15300
H3072       H  0.92913743  0.99226734  0.67209142     0.15900
C3073       C  0.88369994  0.79393211  0.75967691    -0.13700
C3074       C  0.89869994  0.75910116  0.76566110    -0.28900
H3075       H  0.89393131  0.82312597  0.75858103     0.15300
H3076       H  0.88745510  0.72988290  0.76335478     0.15900
C3077       C  0.78792190  0.82856586  0.68175231    -0.13700
C3078       C  0.79818137  0.83667854  0.65931287    -0.28900
H3079       H  0.76564813  0.83329261  0.67719121     0.15300
H3080       H  0.82001781  0.82920555  0.66329854     0.15900
C3081       C  0.53852880  0.66548189  0.66394284    -0.13700
C3082       C  0.52494719  0.65131529  0.63490303    -0.28900
H3083       H  0.54384280  0.69805767  0.66759077     0.15300
H3084       H  0.52103279  0.97019586  0.63761031     0.15900
C3085       C  0.53538499  0.90352422  0.73673262    -0.13700
C3086       C  0.54275380  0.86391187  0.73740111    -0.28900
H3087       H  0.51729340  0.91252935  0.74239321     0.15300
H3088       H  0.55967703  0.85580918  0.72936172     0.15900
C3089       C  0.63020743  0.95970996  0.74622918    -0.13700
C3090       C  0.64534097  0.93869052  0.77192149    -0.28900
H3091       H  0.64095140  0.97259197  0.73175422     0.15300
H3092       H  0.63568813  0.92738149  0.78782932     0.15900
C3093       C  0.77694433  0.96395176  0.90108109    -0.13700
C3094       C  0.80222982  0.98239038  0.91495886    -0.28900
H3095       H  0.76175580  0.96344182  0.91257535     0.15300
H3096       H  0.81811059  0.98007690  0.90441829     0.15900
C3097       C  0.70569669  0.83532297  0.67809394    -0.13700
C3098       C  0.71086554  0.79910389  0.66714354    -0.28900
H3099       H  0.69131080  0.85658126  0.66192878     0.15300
H3100       H  0.72602633  0.77841206  0.68278244     0.15900
C3101       C  0.73270157  0.75957696  0.84428303    -0.13700
C3102       C  0.71533812  0.72837320  0.82978597    -0.28900
H3103       H  0.73835249  0.76338285  0.86918963     0.15300
H3104       H  0.70699627  0.72767262  0.80450342     0.15900
C3105       C  0.77357682  0.70168058  0.74911575    -0.13700
C3106       C  0.79848720  0.72108712  0.76406751    -0.28900
H3107       H  0.75939929  0.71250982  0.72670241     0.15300
H3108       H  0.81234653  0.70868995  0.78618775     0.15900
C3109       C  0.85056016  0.85286683  0.81116090    -0.13700
C3110       C  0.87049217  0.85412271  0.83993326    -0.28900
H3111       H  0.85660956  0.84959396  0.79114906     0.15300
H3112       H  0.86394475  0.85580543  0.85982496     0.15900
C3113       C  0.96945715  0.82261438  0.91086802    -0.13700
C3114       C  0.96443765  0.78540116  0.92053373    -0.28900
H3115       H  0.98713978  0.84091112  0.92584973     0.15300
H3116       H  0.94636270  0.76748498  0.90570309     0.15900
C3117       C  0.95145750  0.92213522  0.82176816    -0.13700
C3118       C  0.97624552  0.94285807  0.83412660    -0.28900
H3119       H  0.93683218  0.93109704  0.79892806     0.15300
H3120       H  0.99082742  0.93579944  0.85735046     0.15900
loop_ 
_geom_bond_atom_site_label_1 
_geom_bond_atom_site_label_2 
_geom_bond_distance 
_geom_bond_site_symmetry_2 
_ccdc_geom_bond_type 
C1            C2   1.413       .  A
C1            C6   1.401       .  A
C1          C253   1.495       .  S
C2            C3   1.406       .  A
C2            H7   1.083       .  S
C3            C4   1.404       .  A
C3          C250   1.487       .  S
C4            C5   1.406       .  A
C4            H8   1.084       .  S
C5            C6   1.408       .  A
C5          C257   1.490       .  S
C6            H9   1.075       .  S
Zn10         O14   1.953       .  S
Zn10         O15   2.014       .  S
Zn10         O19   2.016       .  S
Zn10         O26   2.018       .  S
Zn11         O14   1.964       .  S
Zn11         O16   2.033       .  S
Zn11         O18   2.017       .  S
Zn11         O22   2.014       .  S
Zn12         O14   1.981       .  S
Zn12         O17   2.068       .  S
Zn12         O20   2.060       .  S
Zn12         O23   2.044       .  S
Zn13         O14   1.964       .  S
Zn13         O21   2.007       .  S
Zn13         O24   2.005       .  S
Zn13         O25   2.029       .  S
O15          C27   1.274       .  A
O16          C28   1.274       .  A
O17          C29   1.280       .  A
O18          C27   1.273       .  A
O19          C29   1.275       .  A
O20          C28   1.279       .  A
O21          C30   1.275       .  A
O22          C31   1.274       .  A
O23          C30   1.276       .  A
O24          C31   1.271       .  A
O25          C32   1.271       .  A
O26          C32   1.273       .  A
C27         C765   1.475       .  S
C28         C237   1.492       .  S
C29         C249   1.483       .  S
C30         C241   1.476       .  S
C31         C230   1.471       .  S
C32         C233   1.483       .  S
C33          C34   1.401       .  A
C33          C38   1.413       .  A
C33         C741   1.481       .  S
C34          C35   1.399       .  A
C34         H559   1.085       .  S
C35          C36   1.405       .  A
C35         C229   1.482       .  S
C36          C37   1.399       .  A
C36          H40   1.083       .  S
C37          C38   1.405       .  A
C37         C225   1.479       .  S
C38          H41   1.082       .  S
H39        C1074   1.084   1_545  S
C42          C43   1.400       .  A
C42          C47   1.418       .  A
C42         C217   1.488       .  S
C43          C44   1.395       .  A
C43          H48   1.080       .  S
C44          C45   1.406       .  A
C44         C246   1.484       .  S
C45          C46   1.402       .  A
C45          H49   1.083       .  S
C46          C47   1.409       .  A
C46         C213   1.487       .  S
C47          H50   1.082       .  S
Zn51         O55   1.960       .  S
Zn51         O56   2.010       .  S
Zn51         O60   2.010       .  S
Zn51       O1107   2.040   1_545  S
Zn52       O1615   1.963       .  S
Zn52         O57   2.023       .  S
Zn52         O59   2.027       .  S
Zn52         O63   2.037       .  S
Zn53         O55   1.982       .  S
Zn53         O58   2.069       .  S
Zn53       O1621   2.042       .  S
Zn53       O1624   2.053       .  S
Zn54       O1615   1.952       .  S
Zn54         O62   2.000       .  S
Zn54         O65   2.014       .  S
Zn54       O1106   2.018   1_545  S
O55       Zn1612   1.969       .  S
O55       Zn1614   1.961       .  S
O56          C68   1.274       .  A
O57          C69   1.276       .  A
O58          C70   1.279       .  A
O59        C1628   1.274   1_455  A
O60          C70   1.275       .  A
O61       Zn1613   2.046       .  S
O61          C69   1.276   1_655  A
O62          C71   1.271       .  A
O63          C72   1.275       .  A
O64       Zn1613   2.040   1_455  S
O64          C71   1.277       .  A
O65          C72   1.274       .  A
O66        Zn574   2.025       .  S
O66        C1633   1.272   1_455  A
O67        Zn571   2.019       .  S
O67          C73   1.273       .  A
C68         C209   1.471       .  S
C68        O1619   1.272       .  A
C69         C226   1.487       .  S
C70         C214   1.490       .  S
C71         C205   1.474       .  S
C72         C201   1.482       .  S
C73         C258   1.480       .  S
C73        O1626   1.273       .  A
C74          C79   1.410       .  A
C74         C595   1.403       .  A
C74         C197   1.480       .  S
C75          C76   1.400       .  A
C75        C1114   1.401       .  A
C75          H80   1.083       .  S
C76          C77   1.406       .  A
C76         C242   1.479       .  S
C77        C1118   1.411       .  A
C77          H81   1.080       .  S
C78          C79   1.403       .  A
C78         C597   1.405       .  A
C78         C722   1.487       .  S
C79          H82   1.084       .  S
C83          C84   1.406       .  A
C83          C88   1.413       .  A
C83         C730   1.487       .  S
C84          C85   1.404       .  A
C84         H609   1.083       .  S
C85          C86   1.395       .  A
C85         C189   1.476       .  S
C86          C87   1.398       .  A
C86          H90   1.085       .  S
C87          C88   1.408       .  A
C87         C193   1.484       .  S
C88          H91   1.079       .  S
H89        C1124   1.083       .  S
Zn92         O96   1.958       .  S
Zn92         O97   2.055       .  S
Zn92        O101   2.027       .  S
Zn92        O108   2.011       .  S
Zn93         O96   1.906       .  S
Zn93         O98   1.983       .  S
Zn93        O100   1.983       .  S
Zn93        O104   1.963       .  S
Zn94         O96   1.960       .  S
Zn94         O99   2.001       .  S
Zn94        O362   2.071       .  S
Zn94        O365   2.024   1_554  S
Zn95         O96   1.973       .  S
Zn95        O106   2.038       .  S
Zn95        O107   2.034       .  S
Zn95        O363   2.044   1_554  S
O97         C109   1.278       .  A
O98         C110   1.268       .  A
O99         C111   1.276       .  A
O100        C109   1.267       .  A
O101        C111   1.276       .  A
O102       Zn354   2.083       .  S
O102        C370   1.280       .  A
O103       Zn355   2.033       .  S
O103        C112   1.278       .  A
O104        C113   1.271       .  A
O105       Zn354   2.006       .  S
O105        C112   1.273       .  A
O106        C113   1.274       .  A
O107        C114   1.276       .  A
O108        C114   1.272       .  A
C109        C218   1.476       .  S
C110        C181   1.475       .  S
C110        O362   1.277       .  A
C111        C177   1.476       .  S
C112        C198   1.474       .  S
C113        C190   1.469       .  S
C114        C706   1.475       .  S
C115        C116   1.408       .  A
C115        C120   1.406       .  A
C115        C206   1.484       .  S
C116        C117   1.399       .  A
C116        H121   1.083       .  S
C117        C378   1.408       .  A
C117        C438   1.488       .  S
C118        C377   1.405       .  A
C118        C379   1.402       .  A
C118        H122   1.083   1_556  S
C119        C120   1.406       .  A
C119        C378   1.405       .  A
C119        C434   1.484       .  S
C120        H123   1.084       .  S
C124        C129   1.401       .  A
C124        C645   1.413       .  A
C124        C234   1.482       .  S
C125        C126   1.411       .  A
C125       C1164   1.412   1_545  A
C125        H130   1.079       .  S
C126        C387   1.416       .  A
C126        C442   1.507       .  S
C127        C386   1.407       .  A
C127       C1428   1.399       .  A
C127        H131   1.083   1_556  S
C128        C129   1.395       .  A
C128        C907   1.406       .  A
C128        C950   1.489       .  S
C129        H132   1.085       .  S
C133        C134   1.404       .  A
C133        C138   1.416       .  A
C133        C238   1.493       .  S
C134        C135   1.401       .  A
C134        H139   1.084       .  S
C135        C136   1.399       .  A
C135        C185   1.482       .  S
C136        C137   1.405       .  A
C136        H140   1.085       .  S
C137        C138   1.422       .  A
C137        C165   1.503       .  S
C138        H141   1.079       .  S
Zn142       O146   1.923       .  S
Zn142       O151   2.005       .  S
Zn142       O158   2.001       .  S
Zn142       O407   1.956   1_554  S
Zn143      O1706   1.980   1_456  S
Zn143       O148   2.086   1_556  S
Zn143       O154   2.028       .  S
Zn143       O410   2.098   1_455  S
Zn144      O1706   1.964   1_455  S
Zn144       O149   2.044   1_455  S
Zn144       O152   1.994       .  S
Zn144       O155   2.008       .  S
Zn145       O146   1.969       .  S
Zn145       O157   2.018       .  S
Zn145      O1713   2.010   1_545  S
Zn145      O2756   2.015   1_545  S
O146      Zn1703   1.991       .  S
O146      Zn1704   1.955       .  S
O147       Zn402   1.952       .  S
O147        C159   1.265       .  A
O148        C160   1.284       .  A
O149       C1721   1.274       .  A
O150       Zn403   2.093       .  S
O150       C1719   1.282   1_455  A
O151        C161   1.271       .  A
O152        C160   1.271       .  A
O153      Zn1705   2.038   1_455  S
O153        C162   1.278       .  A
O154       C1203   1.275   1_545  A
O155        C162   1.272       .  A
O156      Zn2225   2.008   1_455  S
O156        C163   1.272   1_554  A
O157        C164   1.271       .  A
O158        C164   1.273       .  A
C159        C254   1.481       .  S
C159       O1710   1.284       .  A
C160        C166   1.486       .  S
C161        C194   1.482       .  S
C161       O1709   1.270       .  A
C162        C222   1.477       .  S
C163        C173   1.476       .  S
C163        O674   1.278       .  A
C164        C169   1.475       .  S
C165        C166   1.345       .  D
C165        H167   1.087       .  S
C166        H168   1.083       .  S
C169        C170   1.343       .  D
C169        H171   1.086   1_545  S
C170       C1428   1.482   1_554  S
C170       H1472   1.088       .  S
H172        C950   1.087       .  S
C173        C174   1.340       .  D
C173        H435   1.087       .  S
C174        C379   1.479       .  S
C174        H176   1.087       .  S
H175        C433   1.086       .  S
C177        C178   1.346   1_554  D
C177        H179   1.085       .  S
C178        C377   1.483       .  S
C178        H440   1.087       .  S
H180        C438   1.087       .  S
C181        C182   1.345   1_554  D
C181        H183   1.086       .  S
C182        C386   1.495       .  S
C182        H444   1.086       .  S
H184        C442   1.087       .  S
C185        C186   1.345       .  D
C185        H187   1.087       .  S
C186       C1154   1.476   1_545  S
C186        H188   1.087       .  S
C189        C190   1.341       .  D
C189        H191   1.089       .  S
C190        H192   1.085       .  S
C193        C194   1.346       .  D
C193        H195   1.088       .  S
C194        H196   1.085       .  S
C197        C198   1.340       .  D
C197        H199   1.086       .  S
C198        H200   1.087       .  S
C201        C202   1.350       .  D
C201        H203   1.083       .  S
C202       C1118   1.495       .  S
C202       H1244   1.087   1_545  S
H204        C722   1.087       .  S
C205        C206   1.344       .  D
C205        H207   1.086       .  S
C206        H208   1.085       .  S
C209        C210   1.342   1_545  D
C209        H211   1.083       .  S
C210       C1123   1.480       .  S
C210       H1252   1.087       .  S
H212        C730   1.087       .  S
C213        C214   1.349       .  D
C213        H215   1.087       .  S
C214        H216   1.086       .  S
C217        C218   1.340       .  D
C217        H219   1.087       .  S
C218        H220   1.086       .  S
C221       C1073   1.480       .  S
C221        C222   1.341   1_565  D
C221        H223   1.087       .  S
C222       H1264   1.087       .  S
H224        C742   1.087       .  S
C225        C226   1.345       .  D
C225        H227   1.087       .  S
C226        H228   1.087       .  S
C229        C230   1.343       .  D
C229        H231   1.087       .  S
C230        H232   1.086       .  S
C233        C234   1.343       .  D
C233        H235   1.085       .  S
C234        H236   1.087       .  S
C237        C238   1.346       .  D
C237        H239   1.086       .  S
C238        H240   1.083       .  S
C241        C242   1.343       .  D
C241        H243   1.087       .  S
C242        H244   1.087       .  S
C245       C1067   1.470   1_545  S
C245        C246   1.339       .  D
C245        H247   1.086       .  S
C246        H248   1.087       .  S
C249        C250   1.349       .  D
C249        H251   1.086       .  S
C250        H252   1.087       .  S
C253        C254   1.341       .  D
C253        H255   1.084       .  S
C254        H256   1.087       .  S
C257        C258   1.350       .  D
C257        H259   1.087       .  S
C258        H260   1.085       .  S
C261        C262   1.413       .  A
C261        C266   1.401       .  A
C261        C513   1.495       .  S
C262        C263   1.403       .  A
C262        H267   1.083       .  S
C263        C264   1.404       .  A
C263        C510   1.484       .  S
C264        C265   1.409       .  A
C264        H268   1.084       .  S
C265        C266   1.410       .  A
C265        C517   1.494       .  S
C266        H269   1.076       .  S
Zn270       O274   1.933       .  S
Zn270       O275   1.979       .  S
Zn270       O279   1.992       .  S
Zn270       O286   1.977       .  S
Zn271       O274   1.970       .  S
Zn271       O276   2.020       .  S
Zn271       O278   2.041       .  S
Zn271       O282   2.038       .  S
Zn272       O274   1.986       .  S
Zn272       O277   2.080       .  S
Zn272       O280   2.054       .  S
Zn272       O283   2.058       .  S
Zn273       O274   1.957       .  S
Zn273       O281   1.983       .  S
Zn273       O284   2.004       .  S
Zn273       O285   2.033       .  S
O275        C287   1.268       .  A
O276        C288   1.274       .  A
O277        C289   1.279       .  A
O278        C287   1.277       .  A
O279        C289   1.270       .  A
O280        C288   1.279       .  A
O281        C290   1.271       .  A
O282        C291   1.275       .  A
O283        C290   1.279       .  A
O284        C291   1.270       .  A
O285        C292   1.271       .  A
O286        C292   1.269       .  A
C287       C1025   1.470       .  S
C288        C497   1.484       .  S
C289        C509   1.488       .  S
C290        C501   1.467       .  S
C291        C490   1.477       .  S
C292        C493   1.475       .  S
C293        C294   1.408       .  A
C293        C298   1.408       .  A
C293       C1001   1.488       .  S
C294        C295   1.404       .  A
C294        H819   1.084       .  S
C295        C296   1.408       .  A
C295        C489   1.491       .  S
C296        C297   1.404       .  A
C296        H300   1.081       .  S
C297        C298   1.403       .  A
C297        C485   1.488       .  S
C298        H301   1.080       .  S
H299       C1334   1.083       .  S
C302        C303   1.409       .  A
C302        C307   1.402       .  A
C302        C477   1.481       .  S
C303        C304   1.400       .  A
C303        H308   1.079       .  S
C304        C305   1.409       .  A
C304        C506   1.488       .  S
C305        C306   1.401       .  A
C305        H309   1.083       .  S
C306        C307   1.401       .  A
C306        C473   1.483       .  S
C307        H310   1.083       .  S
Zn311       O315   1.961       .  S
Zn311       O316   2.030       .  S
Zn311       O320   2.009       .  S
Zn311      O1367   2.050   1_545  S
Zn312      O1875   1.954       .  S
Zn312       O317   1.996       .  S
Zn312       O319   1.999       .  S
Zn312       O323   1.993       .  S
Zn313       O315   1.989       .  S
Zn313       O318   2.031       .  S
Zn313      O1881   2.065       .  S
Zn313      O1884   2.031       .  S
Zn314      O1875   1.952       .  S
Zn314       O322   1.999       .  S
Zn314       O325   2.021       .  S
Zn314      O1366   2.021   1_545  S
O315      Zn1872   1.949       .  S
O315      Zn1874   1.956       .  S
O316        C328   1.276       .  A
O317        C329   1.271       .  A
O318        C330   1.275       .  A
O319       C1888   1.269   1_455  A
O320        C330   1.275       .  A
O321      Zn1873   2.064   1_455  S
O321        C329   1.278       .  A
O322        C331   1.272       .  A
O323        C332   1.268       .  A
O324      Zn1873   2.062   1_455  S
O324        C331   1.280       .  A
O325        C332   1.274       .  A
O326       Zn834   2.021       .  S
O326       C1893   1.272   1_455  A
O327       Zn831   2.013       .  S
O327        C333   1.271       .  A
C328        C469   1.473       .  S
C328       O1879   1.271       .  A
C329        C486   1.476       .  S
C330        C474   1.475       .  S
C331        C465   1.477       .  S
C332        C461   1.472       .  S
C333        C518   1.482       .  S
C333       O1886   1.274       .  A
C334        C855   1.405       .  A
C334        C339   1.403       .  A
C334        C457   1.484       .  S
C335       C1374   1.404   1_545  A
C335        C336   1.401       .  A
C335        H340   1.080       .  S
C336        C337   1.405       .  A
C336        C502   1.482       .  S
C337       C1378   1.407       .  A
C337        H341   1.080       .  S
C338        C857   1.410       .  A
C338        C339   1.406       .  A
C338        C982   1.493       .  S
C339        H342   1.084       .  S
C343        C344   1.413       .  A
C343        C348   1.398       .  A
C343        C990   1.481       .  S
C344        C345   1.407       .  A
C344        H869   1.083       .  S
C345        C346   1.399       .  A
C345        C449   1.480       .  S
C346        C347   1.397       .  A
C346        H350   1.085       .  S
C347        C348   1.397       .  A
C347        C453   1.473       .  S
C348        H351   1.076       .  S
H349       C1384   1.083       .  S
Zn352       O356   1.946       .  S
Zn352       O357   2.002       .  S
Zn352       O361   1.996       .  S
Zn352       O368   2.001       .  S
Zn353       O356   1.927       .  S
Zn353       O358   2.009       .  S
Zn353       O360   2.004       .  S
Zn353       O364   1.994       .  S
Zn354       O356   1.972       .  S
Zn354       O359   2.049       .  S
Zn355       O356   1.980       .  S
Zn355       O366   2.049       .  S
Zn355       O367   2.050       .  S
O357        C369   1.270       .  A
O358        C370   1.272       .  A
O359        C371   1.279       .  A
O360        C369   1.273       .  A
O361        C371   1.271       .  A
O363        C372   1.278       .  A
O364        C373   1.273       .  A
O365        C372   1.275       .  A
O366        C373   1.275       .  A
O367        C374   1.276       .  A
O368        C374   1.270       .  A
C369        C478   1.470       .  S
C370        C441   1.489       .  S
C371        C437   1.477       .  S
C372        C458   1.482       .  S
C373        C450   1.476       .  S
C374        C966   1.475       .  S
C375        C376   1.408       .  A
C375        C380   1.406       .  A
C375        C466   1.488       .  S
C376        C377   1.400       .  A
C376        H381   1.083       .  S
C378        H382   1.083       .  S
C379        C380   1.408       .  A
C380        H383   1.085       .  S
C384        C905   1.409       .  A
C384        C389   1.399       .  A
C384        C494   1.480       .  S
C385       C1424   1.410   1_545  A
C385        C386   1.405       .  A
C385        H390   1.074       .  S
C387       C1168   1.411       .  A
C387        H391   1.079       .  S
C388        C647   1.407   1_556  A
C388        C389   1.394       .  A
C388        C690   1.485   1_556  S
C389        H392   1.085       .  S
C393        C394   1.403       .  A
C393        C398   1.412       .  A
C393        C498   1.488       .  S
C394        C395   1.403       .  A
C394        H399   1.084       .  S
C395        C396   1.400       .  A
C395        C445   1.480       .  S
C396        C397   1.404       .  A
C396        H400   1.085       .  S
C397        C398   1.416       .  A
C397        C425   1.499       .  S
C398        H401   1.079       .  S
Zn402       O406   1.907       .  S
Zn402       O411   1.965       .  S
Zn402       O418   1.978       .  S
Zn403      O1966   1.965       .  S
Zn403       O408   2.061       .  S
Zn403       O414   2.044       .  S
Zn404      O1966   1.955       .  S
Zn404       O409   2.050   1_455  S
Zn404       O412   2.008       .  S
Zn404       O415   2.028       .  S
Zn405       O406   1.971       .  S
Zn405      O1973   2.027       .  S
Zn405      O3016   2.041   1_545  S
Zn405       O417   2.065       .  S
O406      Zn1963   1.977       .  S
O406      Zn1964   1.954       .  S
O407        C419   1.267       .  A
O408        C420   1.281       .  A
O409       C1981   1.277       .  A
O410       C1979   1.283       .  A
O411        C421   1.267       .  A
O412        C420   1.273       .  A
O413      Zn1965   2.043   1_455  S
O413        C422   1.277       .  A
O414       C1463   1.279   1_545  A
O415        C422   1.274       .  A
O416      Zn2485   2.040       .  S
O416        C423   1.277   1_655  A
O417        C424   1.278       .  A
O418        C424   1.267       .  A
C419        C514   1.479       .  S
C419       O1970   1.284       .  A
C420        C426   1.483       .  S
C421        C454   1.474       .  S
C421       O1969   1.272       .  A
C422        C482   1.483       .  S
C423        C433   1.480       .  S
C423        O934   1.277       .  A
C424        C429   1.476       .  S
C425        C426   1.346       .  D
C425        H427   1.087       .  S
C426        H428   1.082       .  S
C429        C430   1.341       .  D
C429        H431   1.086       .  S
C430       C1168   1.490       .  S
C430       H1212   1.087   1_545  S
H432        C690   1.087       .  S
C433        C434   1.345       .  D
C434        H436   1.087       .  S
C437        C438   1.343       .  D
C437        H439   1.086       .  S
C441        C442   1.350       .  D
C441        H443   1.083       .  S
C445        C446   1.344       .  D
C445        H447   1.087       .  S
C446       C1414   1.476   1_545  S
C446        H448   1.087       .  S
C449        C450   1.343       .  D
C449        H451   1.089       .  S
C450        H452   1.086       .  S
C453        C454   1.348       .  D
C453        H455   1.087       .  S
C454        H456   1.086       .  S
C457        C458   1.346       .  D
C457        H459   1.085       .  S
C458        H460   1.087       .  S
C461        C462   1.342       .  D
C461        H463   1.084       .  S
C462       C1378   1.485       .  S
C462       H1504   1.087   1_545  S
H464        C982   1.087       .  S
C465        C466   1.345       .  D
C465        H467   1.088       .  S
C466        H468   1.086       .  S
C469        C470   1.339   1_545  D
C469        H471   1.083       .  S
C470       C1383   1.481       .  S
C470       H1512   1.087       .  S
H472        C990   1.087       .  S
C473        C474   1.346       .  D
C473        H475   1.087       .  S
C474        H476   1.085       .  S
C477        C478   1.342       .  D
C477        H479   1.087       .  S
C478        H480   1.081       .  S
C481       C1333   1.489       .  S
C481        C482   1.346   1_565  D
C481        H483   1.086       .  S
C482       H1524   1.087       .  S
H484       C1002   1.087       .  S
C485        C486   1.345       .  D
C485        H487   1.086       .  S
C486        H488   1.088       .  S
C489        C490   1.346       .  D
C489        H491   1.087       .  S
C490        H492   1.085       .  S
C493        C494   1.343       .  D
C493        H495   1.077       .  S
C494        H496   1.088       .  S
C497        C498   1.345       .  D
C497        H499   1.087       .  S
C498        H500   1.086       .  S
C501        C502   1.341       .  D
C501        H503   1.088       .  S
C502        H504   1.086       .  S
C505       C1327   1.472   1_545  S
C505        C506   1.340       .  D
C505        H507   1.086       .  S
C506        H508   1.087       .  S
C509        C510   1.350       .  D
C509        H511   1.086       .  S
C510        H512   1.087       .  S
C513        C514   1.341       .  D
C513        H515   1.086       .  S
C514        H516   1.087       .  S
C517        C518   1.352       .  D
C517        H519   1.087       .  S
C518        H520   1.083       .  S
C521        C522   1.412       .  A
C521        C526   1.401       .  A
C521        C773   1.492       .  S
C522        C523   1.404       .  A
C522        H527   1.082       .  S
C523        C524   1.405       .  A
C523        C770   1.486       .  S
C524        C525   1.406       .  A
C524        H528   1.084       .  S
C525        C526   1.409       .  A
C525        C777   1.491       .  S
C526        H529   1.076       .  S
Zn530       O534   1.945       .  S
Zn530       O535   2.008       .  S
Zn530       O539   2.004       .  S
Zn530       O546   2.011       .  S
Zn531       O534   1.958       .  S
Zn531       O536   2.014       .  S
Zn531       O538   2.023       .  S
Zn531       O542   2.007       .  S
Zn532       O534   1.987       .  S
Zn532       O537   2.058       .  S
Zn532       O540   2.069       .  S
Zn532       O543   2.050       .  S
Zn533       O534   1.961       .  S
Zn533       O541   1.989       .  S
Zn533       O544   2.008       .  S
Zn533       O545   2.028       .  S
O535        C547   1.274       .  A
O536        C548   1.272       .  A
O537        C549   1.278       .  A
O538        C547   1.272       .  A
O539        C549   1.272       .  A
O540        C548   1.279       .  A
O541        C550   1.273       .  A
O542        C551   1.274       .  A
O543        C550   1.277       .  A
O544        C551   1.271       .  A
O545        C552   1.271       .  A
O546        C552   1.273       .  A
C547       C1285   1.479       .  S
C548        C757   1.487       .  S
C549        C769   1.474       .  S
C550        C761   1.478       .  S
C551        C750   1.473       .  S
C552        C753   1.481       .  S
C553        C554   1.397       .  A
C553        C558   1.410       .  A
C553       C1261   1.480       .  S
C554        C555   1.399       .  A
C554       H1079   1.085       .  S
C555        C556   1.407       .  A
C555        C749   1.483       .  S
C556        C557   1.407       .  A
C556        H560   1.081       .  S
C557        C558   1.407       .  A
C557        C745   1.490       .  S
C558        H561   1.081       .  S
C562        C563   1.401       .  A
C562        C567   1.409       .  A
C562        C737   1.485       .  S
C563        C564   1.407       .  A
C563        H568   1.078       .  S
C564        C565   1.403       .  A
C564        C766   1.486       .  S
C565        C566   1.405       .  A
C565        H569   1.084       .  S
C566        C567   1.399       .  A
C566        C733   1.484       .  S
C567        H570   1.083       .  S
Zn571       O575   1.953       .  S
Zn571       O576   2.025       .  S
Zn571       O580   1.984       .  S
Zn572      O2135   1.953   1_455  S
Zn572       O577   2.003       .  S
Zn572       O579   2.003   1_455  S
Zn572       O583   2.012       .  S
Zn573       O575   1.994       .  S
Zn573       O578   2.061       .  S
Zn573      O2141   2.050       .  S
Zn573      O2144   2.059       .  S
Zn574      O2135   1.965   1_455  S
Zn574       O582   1.998       .  S
Zn574       O585   2.022       .  S
O575      Zn2132   1.963       .  S
O575      Zn2134   1.961       .  S
O576        C588   1.275       .  A
O577        C589   1.271       .  A
O578        C590   1.278       .  A
O579       C2148   1.271       .  A
O580        C590   1.270       .  A
O581      Zn2133   2.066   1_455  S
O581        C589   1.278       .  A
O582        C591   1.272       .  A
O583        C592   1.271       .  A
O584      Zn2133   2.059   1_455  S
O584        C591   1.279       .  A
O585        C592   1.274       .  A
O586      Zn1094   2.024       .  S
O586       C2153   1.272   1_455  A
O587      Zn1091   2.018       .  S
O587        C593   1.273       .  A
C588        C729   1.481       .  S
C588       O2139   1.274       .  A
C589        C746   1.480       .  S
C590        C734   1.472       .  S
C591        C725   1.478       .  S
C592        C721   1.476       .  S
C593        C778   1.477       .  S
C593       O2146   1.272       .  A
C594       C1115   1.400       .  A
C594        C599   1.406       .  A
C594        C717   1.481       .  S
C595        C596   1.401       .  A
C595        H600   1.084       .  S
C596        C597   1.399       .  A
C596        C762   1.471       .  S
C597        H601   1.083       .  S
C598       C1117   1.409       .  A
C598        C599   1.405       .  A
C598       C1242   1.491       .  S
C599        H602   1.084       .  S
C603        C604   1.401       .  A
C603        C608   1.405       .  A
C603       C1250   1.479       .  S
C604        C605   1.406       .  A
C604       H1129   1.083       .  S
C605        C606   1.401       .  A
C605        C709   1.478       .  S
C606        C607   1.404       .  A
C606        H610   1.084       .  S
C607        C608   1.395       .  A
C607        C713   1.483       .  S
C608        H611   1.075       .  S
Zn612       O616   1.965       .  S
Zn612       O617   2.047       .  S
Zn612       O621   2.026       .  S
Zn612       O628   2.017       .  S
Zn613       O616   1.915       .  S
Zn613       O618   1.986       .  S
Zn613       O620   1.981       .  S
Zn613       O624   1.973       .  S
Zn614       O616   1.967       .  S
Zn614       O619   2.013       .  S
Zn614       O882   2.068       .  S
Zn614       O885   2.022   1_554  S
Zn615       O616   1.976       .  S
Zn615       O883   2.032   1_554  S
Zn615       O626   2.037       .  S
Zn615       O627   2.038       .  S
O617        C629   1.276       .  A
O618        C630   1.268       .  A
O619        C631   1.276       .  A
O620        C629   1.268       .  A
O621        C631   1.276       .  A
O622       Zn874   2.053       .  S
O622        C890   1.275       .  A
O623       Zn875   2.039       .  S
O623        C632   1.277       .  A
O624        C633   1.271       .  A
O625       Zn874   2.003       .  S
O625        C632   1.271       .  A
O626        C633   1.274       .  A
O627        C634   1.276       .  A
O628        C634   1.272       .  A
C629        C738   1.471       .  S
C630        C701   1.478       .  S
C630        O882   1.277       .  A
C631        C697   1.476       .  S
C632        C718   1.475       .  S
C633        C710   1.470       .  S
C634       C1226   1.479       .  S
C635        C636   1.407       .  A
C635        C640   1.406       .  A
C635        C726   1.489       .  S
C636        C637   1.400       .  A
C636        H641   1.083       .  S
C637        C898   1.406       .  A
C637        C958   1.485       .  S
C638        C897   1.406       .  A
C638        C899   1.399       .  A
C638        H642   1.083   1_556  S
C639        C898   1.405       .  A
C639        C640   1.409       .  A
C639        C954   1.485       .  S
C640        H643   1.084       .  S
C644       C1165   1.413       .  A
C644        C649   1.400       .  A
C644        C754   1.477       .  S
C645        C646   1.416       .  A
C645        H650   1.079       .  S
C646        C907   1.408       .  A
C646        C962   1.499       .  S
C647        C906   1.412   1_554  A
C647        H651   1.080       .  S
C648       C1427   1.401       .  A
C648        C649   1.393       .  A
C648       C1470   1.478       .  S
C649        H652   1.085       .  S
C653        C654   1.405       .  A
C653        C658   1.415       .  A
C653        C758   1.494       .  S
C654        C655   1.405       .  A
C654        H659   1.084       .  S
C655        C656   1.399       .  A
C655        C705   1.480       .  S
C656        C657   1.402       .  A
C656        H660   1.085       .  S
C657        C658   1.416       .  A
C657        C685   1.497       .  S
C658        H661   1.080       .  S
Zn662       O666   1.900       .  S
Zn662       O927   1.965   1_554  S
Zn662       O671   1.969       .  S
Zn662       O678   1.973       .  S
Zn663      O2226   1.979   1_455  S
Zn663       O668   2.068       .  S
Zn663       O930   2.095   1_454  S
Zn663       O674   2.044   1_554  S
Zn664      O2226   1.966   1_455  S
Zn664       O669   2.069   1_455  S
Zn664       O672   2.007       .  S
Zn664       O675   2.045       .  S
Zn665       O666   1.960       .  S
Zn665      O2233   2.029       .  S
Zn665      O1716   2.042       .  S
Zn665       O677   2.050       .  S
O666      Zn2223   1.970       .  S
O666      Zn2224   1.957       .  S
O667       Zn922   1.974       .  S
O667        C679   1.266       .  A
O668        C680   1.283       .  A
O669       C2241   1.277       .  A
O670       Zn923   2.100   1_655  S
O670       C2239   1.283       .  A
O671        C681   1.265       .  A
O672        C680   1.274       .  A
O673      Zn2225   2.004   1_455  S
O673        C682   1.273       .  A
O675        C682   1.279       .  A
O676      Zn2745   1.999   1_455  S
O676        C683   1.272       .  A
O677        C684   1.278       .  A
O678        C684   1.267       .  A
C679        C774   1.473       .  S
C679       O2230   1.280       .  A
C680        C686   1.483       .  S
C681        C714   1.471       .  S
C681       O2229   1.278       .  A
C682        C742   1.476       .  S
C683        C693   1.474   1_554  S
C683       O1194   1.279   1_554  A
C684        C689   1.470       .  S
C685        C686   1.344       .  D
C685        H687   1.087       .  S
C686        H688   1.084       .  S
C689        C690   1.340       .  D
C689        H691   1.085       .  S
H692       C1470   1.087       .  S
C693        C694   1.339       .  D
C693        H955   1.087       .  S
C694        C899   1.478       .  S
C694        H696   1.087       .  S
H695        C953   1.087       .  S
C697        C698   1.347   1_554  D
C697        H699   1.086       .  S
C698        C897   1.485       .  S
C698        H960   1.087       .  S
H700        C958   1.087       .  S
C701        C702   1.345   1_554  D
C701        H703   1.085       .  S
C702        C906   1.496       .  S
C702        H964   1.087       .  S
H704        C962   1.087       .  S
C705        C706   1.342       .  D
C705        H707   1.087       .  S
C706        H708   1.087       .  S
C709        C710   1.343       .  D
C709        H711   1.088       .  S
C710        H712   1.085       .  S
C713        C714   1.339       .  D
C713        H715   1.087       .  S
C714        H716   1.088       .  S
C717        C718   1.342       .  D
C717        H719   1.085       .  S
C718        H720   1.087       .  S
C721        C722   1.346       .  D
C721        H723   1.086       .  S
H724       C1242   1.087       .  S
C725        C726   1.345       .  D
C725        H727   1.087       .  S
C726        H728   1.085       .  S
C729        C730   1.344       .  D
C729        H731   1.083       .  S
H732       C1250   1.087       .  S
C733        C734   1.342       .  D
C733        H735   1.086       .  S
C734        H736   1.088       .  S
C737        C738   1.342       .  D
C737        H739   1.086       .  S
C738        H740   1.087       .  S
C741        C742   1.342       .  D
C741        H743   1.087       .  S
H744       C1262   1.087       .  S
C745        C746   1.346       .  D
C745        H747   1.086       .  S
C746        H748   1.087       .  S
C749        C750   1.343       .  D
C749        H751   1.087       .  S
C750        H752   1.084       .  S
C753        C754   1.341       .  D
C753        H755   1.084       .  S
C754        H756   1.087       .  S
C757        C758   1.346       .  D
C757        H759   1.086       .  S
C758        H760   1.084       .  S
C761        C762   1.343       .  D
C761        H763   1.087       .  S
C762        H764   1.087       .  S
C765        C766   1.347       .  D
C765        H767   1.084       .  S
C766        H768   1.087       .  S
C769        C770   1.345       .  D
C769        H771   1.083       .  S
C770        H772   1.087       .  S
C773        C774   1.341       .  D
C773        H775   1.086       .  S
C774        H776   1.085       .  S
C777        C778   1.349       .  D
C777        H779   1.087       .  S
C778        H780   1.083       .  S
C781        C782   1.421       .  A
C781        C786   1.408       .  A
C781       C1033   1.501       .  S
C782        C783   1.410       .  A
C782        H787   1.082       .  S
C783        C784   1.398       .  A
C783       C1030   1.484       .  S
C784        C785   1.396       .  A
C784        H788   1.085       .  S
C785        C786   1.404       .  A
C785       C1037   1.485       .  S
C786        H789   1.075       .  S
Zn790       O794   1.938       .  S
Zn790       O795   2.010       .  S
Zn790       O799   1.994       .  S
Zn790       O806   2.003       .  S
Zn791       O794   1.956       .  S
Zn791       O796   2.002       .  S
Zn791       O798   2.017       .  S
Zn791       O802   1.999       .  S
Zn792       O794   1.994       .  S
Zn792       O797   2.078       .  S
Zn792       O800   2.083       .  S
Zn792       O803   2.060       .  S
Zn793       O794   1.967       .  S
Zn793       O801   2.002       .  S
Zn793       O804   2.026       .  S
Zn793       O805   2.031       .  S
O795        C807   1.274       .  A
O796        C808   1.271       .  A
O797        C809   1.279       .  A
O798        C807   1.271       .  A
O799        C809   1.274       .  A
O800        C808   1.282       .  A
O801        C810   1.272       .  A
O802        C811   1.273       .  A
O803        C810   1.280       .  A
O804        C811   1.273       .  A
O805        C812   1.273       .  A
O806        C812   1.270       .  A
C807       C1545   1.477       .  S
C808       C1017   1.486       .  S
C809       C1029   1.489       .  S
C810       C1021   1.477       .  S
C811       C1010   1.475       .  S
C812       C1013   1.474       .  S
C813        C814   1.401       .  A
C813        C818   1.408       .  A
C813       C1521   1.479       .  S
C814        C815   1.401       .  A
C814       H1339   1.085       .  S
C815        C816   1.405       .  A
C815       C1009   1.483       .  S
C816        C817   1.401       .  A
C816        H820   1.083       .  S
C817        C818   1.403       .  A
C817       C1005   1.474       .  S
C818        H821   1.083       .  S
C822        C823   1.399       .  A
C822        C827   1.413       .  A
C822        C997   1.480       .  S
C823        C824   1.395       .  A
C823        H828   1.079       .  S
C824        C825   1.406       .  A
C824       C1026   1.486       .  S
C825        C826   1.403       .  A
C825        H829   1.082       .  S
C826        C827   1.410       .  A
C826        C993   1.485       .  S
C827        H830   1.083       .  S
Zn831       O835   1.946       .  S
Zn831       O836   1.979       .  S
Zn831       O840   1.978       .  S
Zn832      O2395   1.968   1_455  S
Zn832       O837   2.015       .  S
Zn832       O839   2.025   1_455  S
Zn832       O843   2.027       .  S
Zn833       O835   1.985       .  S
Zn833       O838   2.074       .  S
Zn833      O2401   2.038       .  S
Zn833      O2404   2.060       .  S
Zn834      O2395   1.962   1_455  S
Zn834       O842   2.006       .  S
Zn834       O845   2.016       .  S
O835      Zn2392   1.978       .  S
O835      Zn2394   1.961       .  S
O836        C848   1.268       .  A
O837        C849   1.275       .  A
O838        C850   1.278       .  A
O839       C2408   1.273       .  A
O840        C850   1.270       .  A
O841      Zn2393   2.035   1_455  S
O841        C849   1.274       .  A
O842        C851   1.272       .  A
O843        C852   1.273       .  A
O844      Zn2393   2.056   1_455  S
O844        C851   1.279       .  A
O845        C852   1.274       .  A
O846      Zn1354   2.045       .  S
O846       C2413   1.275   1_455  A
O847      Zn1351   2.014       .  S
O847        C853   1.274       .  A
C848        C989   1.472       .  S
C848       O2399   1.278       .  A
C849       C1006   1.481       .  S
C850        C994   1.487       .  S
C851        C985   1.480       .  S
C852        C981   1.480       .  S
C853       C1038   1.481       .  S
C853       O2406   1.273       .  A
C854       C1375   1.401       .  A
C854        C859   1.403       .  A
C854        C977   1.478       .  S
C855        C856   1.408       .  A
C855        H860   1.084       .  S
C856        C857   1.404       .  A
C856       C1022   1.485       .  S
C857        H861   1.080       .  S
C858       C1377   1.412       .  A
C858        C859   1.406       .  A
C858       C1502   1.493       .  S
C859        H862   1.084       .  S
C863        C864   1.405       .  A
C863        C868   1.406       .  A
C863       C1510   1.483       .  S
C864        C865   1.408       .  A
C864       H1389   1.083       .  S
C865        C866   1.399       .  A
C865        C969   1.478       .  S
C866        C867   1.403       .  A
C866        H870   1.084       .  S
C867        C868   1.393       .  A
C867        C973   1.479       .  S
C868        H871   1.077       .  S
Zn872       O876   1.963       .  S
Zn872       O877   2.033       .  S
Zn872       O881   2.030       .  S
Zn872       O888   2.017       .  S
Zn873       O876   1.940       .  S
Zn873       O878   2.030       .  S
Zn873       O880   2.011       .  S
Zn873       O884   1.993       .  S
Zn874       O876   1.954       .  S
Zn874       O879   2.002       .  S
Zn875       O876   1.980       .  S
Zn875       O886   2.029       .  S
Zn875       O887   2.039       .  S
O877        C889   1.277       .  A
O878        C890   1.275       .  A
O879        C891   1.275       .  A
O880        C889   1.271       .  A
O881        C891   1.275       .  A
O883        C892   1.277       .  A
O884        C893   1.274       .  A
O885        C892   1.274       .  A
O886        C893   1.274       .  A
O887        C894   1.275       .  A
O888        C894   1.271       .  A
C889        C998   1.478       .  S
C890        C961   1.492       .  S
C891        C957   1.478       .  S
C892        C978   1.479       .  S
C893        C970   1.473       .  S
C894       C1486   1.479       .  S
C895        C896   1.409       .  A
C895        C900   1.405       .  A
C895        C986   1.485       .  S
C896        C897   1.404       .  A
C896        H901   1.083       .  S
C898        H902   1.083       .  S
C899        C900   1.405       .  A
C900        H903   1.084       .  S
C904       C1425   1.406       .  A
C904        C909   1.407       .  A
C904       C1014   1.485       .  S
C905        C906   1.406       .  A
C905        H910   1.077       .  S
C907        H911   1.082       .  S
C908       C1167   1.402   1_556  A
C908        C909   1.396       .  A
C908       C1210   1.480   1_556  S
C909        H912   1.083       .  S
C913        C914   1.401       .  A
C913        C918   1.410       .  A
C913       C1018   1.491       .  S
C914        C915   1.406       .  A
C914        H919   1.084       .  S
C915        C916   1.404       .  A
C915        C965   1.485       .  S
C916        C917   1.411       .  A
C916        H920   1.081       .  S
C917        C918   1.412       .  A
C917        C945   1.499       .  S
C918        H921   1.084       .  S
Zn922       O926   1.886       .  S
Zn922       O931   1.972       .  S
Zn922       O938   1.966       .  S
Zn923      O2486   1.972   1_455  S
Zn923       O928   2.060       .  S
Zn923       O934   2.033       .  S
Zn924      O2486   1.958   1_455  S
Zn924       O929   2.052   1_455  S
Zn924       O932   2.014       .  S
Zn924       O935   2.018       .  S
Zn925       O926   1.955       .  S
Zn925      O2493   2.015       .  S
Zn925      O1976   2.031       .  S
Zn925       O937   2.068       .  S
O926      Zn2483   1.955       .  S
O926      Zn2484   1.944       .  S
O927        C939   1.266       .  A
O928        C940   1.280       .  A
O929       C2501   1.276       .  A
O930       C2499   1.282       .  A
O931        C941   1.267       .  A
O932        C940   1.275       .  A
O933      Zn2485   2.049   1_455  S
O933        C942   1.278       .  A
O935        C942   1.274       .  A
O936      Zn3005   2.017   1_455  S
O936        C943   1.272       .  A
O937        C944   1.278       .  A
O938        C944   1.266       .  A
C939       C1034   1.488       .  S
C939       O2490   1.285       .  A
C940        C946   1.487       .  S
C941        C974   1.466       .  S
C941       O2489   1.277       .  A
C942       C1002   1.482       .  S
C943        C953   1.478       .  S
C943       O1454   1.277       .  A
C944        C949   1.470       .  S
C945        C946   1.355       .  D
C945        H947   1.087       .  S
C946        H948   1.083       .  S
C949        C950   1.342       .  D
C949        H951   1.085       .  S
H952       C1210   1.087       .  S
C953        C954   1.343       .  D
C954        H956   1.087       .  S
C957        C958   1.346       .  D
C957        H959   1.085       .  S
C961        C962   1.350       .  D
C961        H963   1.084       .  S
C965        C966   1.343       .  D
C965        H967   1.087       .  S
C966        H968   1.087       .  S
C969        C970   1.341       .  D
C969        H971   1.088       .  S
C970        H972   1.085       .  S
C973        C974   1.338       .  D
C973        H975   1.087       .  S
C974        H976   1.087       .  S
C977        C978   1.343       .  D
C977        H979   1.084       .  S
C978        H980   1.087       .  S
C981        C982   1.349       .  D
C981        H983   1.083       .  S
H984       C1502   1.087       .  S
C985        C986   1.344       .  D
C985        H987   1.087       .  S
C986        H988   1.084       .  S
C989        C990   1.339       .  D
C989        H991   1.087       .  S
H992       C1510   1.087       .  S
C993        C994   1.348       .  D
C993        H995   1.088       .  S
C994        H996   1.085       .  S
C997        C998   1.341       .  D
C997        H999   1.087       .  S
C998       H1000   1.087       .  S
C1001      C1002   1.345       .  D
C1001      H1003   1.084       .  S
H1004      C1522   1.086       .  S
C1005      C1006   1.343       .  D
C1005      H1007   1.087       .  S
C1006      H1008   1.087       .  S
C1009      C1010   1.345       .  D
C1009      H1011   1.087       .  S
C1010      H1012   1.085       .  S
C1013      C1014   1.345       .  D
C1013      H1015   1.087       .  S
C1014      H1016   1.085       .  S
C1017      C1018   1.343       .  D
C1017      H1019   1.087       .  S
C1018      H1020   1.082       .  S
C1021      C1022   1.342       .  D
C1021      H1023   1.087       .  S
C1022      H1024   1.087       .  S
C1025      C1026   1.340       .  D
C1025      H1027   1.085       .  S
C1026      H1028   1.087       .  S
C1029      C1030   1.347       .  D
C1029      H1031   1.086       .  S
C1030      H1032   1.088       .  S
C1033      C1034   1.343       .  D
C1033      H1035   1.083       .  S
C1034      H1036   1.086       .  S
C1037      C1038   1.346       .  D
C1037      H1039   1.087       .  S
C1038      H1040   1.085       .  S
C1041      C1042   1.410       .  A
C1041      C1046   1.402       .  A
C1041      C1293   1.495       .  S
C1042      C1043   1.404       .  A
C1042      H1047   1.084       .  S
C1043      C1044   1.405       .  A
C1043      C1290   1.485       .  S
C1044      C1045   1.408       .  A
C1044      H1048   1.084       .  S
C1045      C1046   1.413       .  A
C1045      C1297   1.496       .  S
C1046      H1049   1.074       .  S
Zn1050     O1054   1.944       .  S
Zn1050     O1055   1.978       .  S
Zn1050     O1059   2.001       .  S
Zn1050     O1066   2.008       .  S
Zn1051     O1054   1.968       .  S
Zn1051     O1056   2.048       .  S
Zn1051     O1058   2.050       .  S
Zn1051     O1062   2.046       .  S
Zn1052     O1054   1.980       .  S
Zn1052     O1057   2.072       .  S
Zn1052     O1060   2.061       .  S
Zn1052     O1063   2.049       .  S
Zn1053     O1054   1.953       .  S
Zn1053     O1061   1.989       .  S
Zn1053     O1064   2.014       .  S
Zn1053     O1065   2.034       .  S
O1055      C1067   1.269       .  A
O1056      C1068   1.277       .  A
O1057      C1069   1.279       .  A
O1058      C1067   1.280       .  A
O1059      C1069   1.271       .  A
O1060      C1068   1.279       .  A
O1061      C1070   1.272       .  A
O1062      C1071   1.277       .  A
O1063      C1070   1.279       .  A
O1064      C1071   1.273       .  A
O1065      C1072   1.271       .  A
O1066      C1072   1.271       .  A
C1068      C1277   1.494       .  S
C1069      C1289   1.484       .  S
C1070      C1281   1.468       .  S
C1071      C1270   1.481       .  S
C1072      C1273   1.482       .  S
C1073      C1074   1.409       .  A
C1073      C1078   1.398       .  A
C1074      C1075   1.409       .  A
C1075      C1076   1.412       .  A
C1075      C1269   1.495       .  S
C1076      C1077   1.403       .  A
C1076      H1080   1.081       .  S
C1077      C1078   1.395       .  A
C1077      C1265   1.473       .  S
C1078      H1081   1.081       .  S
C1082      C1083   1.406       .  A
C1082      C1087   1.415       .  A
C1082      C1257   1.490       .  S
C1083      C1084   1.405       .  A
C1083      H1088   1.078       .  S
C1084      C1085   1.397       .  A
C1084      C1286   1.481       .  S
C1085      C1086   1.396       .  A
C1085      H1089   1.085       .  S
C1086      C1087   1.404       .  A
C1086      C1253   1.476       .  S
C1087      H1090   1.083       .  S
Zn1091     O1095   1.948       .  S
Zn1091     O1096   2.009       .  S
Zn1091     O1100   1.987       .  S
Zn1092     O2655   1.959       .  S
Zn1092     O1097   2.006       .  S
Zn1092     O1099   2.022       .  S
Zn1092     O1103   2.018       .  S
Zn1093     O1095   1.986       .  S
Zn1093     O1098   2.051       .  S
Zn1093     O2661   2.030       .  S
Zn1093     O2664   2.052       .  S
Zn1094     O2655   1.963       .  S
Zn1094     O1102   2.013       .  S
Zn1094     O1105   2.012       .  S
O1095     Zn2652   1.956       .  S
O1095     Zn2654   1.956       .  S
O1096      C1108   1.273       .  A
O1097      C1109   1.274       .  A
O1098      C1110   1.276       .  A
O1099      C2668   1.272   1_455  A
O1100      C1110   1.272       .  A
O1101     Zn2653   2.028   1_455  S
O1101      C1109   1.274       .  A
O1102      C1111   1.273       .  A
O1103      C1112   1.273       .  A
O1104     Zn2653   2.041   1_455  S
O1104      C1111   1.277       .  A
O1105      C1112   1.274       .  A
O1106      C2673   1.272   1_455  A
O1107      C1113   1.275       .  A
C1108      C1249   1.469       .  S
C1108      O2659   1.271       .  A
C1109      C1266   1.473       .  S
C1110      C1254   1.482       .  S
C1111      C1245   1.479       .  S
C1112      C1241   1.475       .  S
C1113      C1298   1.483       .  S
C1113      O2666   1.273       .  A
C1114      C1119   1.406   1_545  A
C1114      C1237   1.485   1_545  S
C1115      C1116   1.403       .  A
C1115      H1120   1.084       .  S
C1116      C1117   1.400       .  A
C1116      C1282   1.475       .  S
C1117      H1121   1.080       .  S
C1118      C1119   1.409   1_545  A
C1119      H1122   1.084       .  S
C1123      C1124   1.404       .  A
C1123      C1128   1.408       .  A
C1124      C1125   1.405       .  A
C1125      C1126   1.401       .  A
C1125      C1229   1.483       .  S
C1126      C1127   1.407       .  A
C1126      H1130   1.084       .  S
C1127      C1128   1.399       .  A
C1127      C1233   1.483       .  S
C1128      H1131   1.082       .  S
Zn1132     O1136   1.975       .  S
Zn1132     O1137   2.063       .  S
Zn1132     O1141   2.056       .  S
Zn1132     O1148   2.023       .  S
Zn1133     O1136   1.933       .  S
Zn1133     O1138   2.011       .  S
Zn1133     O1140   1.994       .  S
Zn1133     O1144   1.998       .  S
Zn1134     O1136   1.950       .  S
Zn1134     O1139   1.992       .  S
Zn1134     O1402   2.020       .  S
Zn1134     O1405   1.989   1_554  S
Zn1135     O1136   1.980       .  S
Zn1135     O1403   2.043   1_554  S
Zn1135     O1146   2.044       .  S
Zn1135     O1147   2.030       .  S
O1137      C1149   1.279       .  A
O1138      C1150   1.273       .  A
O1139      C1151   1.272       .  A
O1140      C1149   1.271       .  A
O1141      C1151   1.278       .  A
O1142     Zn1394   2.041       .  S
O1142      C1410   1.274       .  A
O1143     Zn1395   2.034       .  S
O1143      C1152   1.276       .  A
O1144      C1153   1.273       .  A
O1145     Zn1394   2.020       .  S
O1145      C1152   1.272       .  A
O1146      C1153   1.275       .  A
O1147      C1154   1.276       .  A
O1148      C1154   1.274       .  A
C1149      C1258   1.478       .  S
C1150      C1221   1.480       .  S
C1150      O1402   1.271       .  A
C1151      C1217   1.483       .  S
C1152      C1238   1.481       .  S
C1153      C1230   1.478       .  S
C1155      C1156   1.403       .  A
C1155      C1160   1.406       .  A
C1155      C1246   1.481       .  S
C1156      C1157   1.401       .  A
C1156      H1161   1.084       .  S
C1157      C1418   1.408       .  A
C1157      C1478   1.485       .  S
C1158      C1417   1.408       .  A
C1158      C1419   1.404       .  A
C1158      H1162   1.081   1_556  S
C1159      C1418   1.404       .  A
C1159      C1160   1.407       .  A
C1159      C1474   1.484       .  S
C1160      H1163   1.084       .  S
C1164      C1169   1.399       .  A
C1164      C1274   1.488       .  S
C1165      C1166   1.415       .  A
C1165      H1170   1.079       .  S
C1166      C1427   1.403       .  A
C1166      C1482   1.495       .  S
C1167      C1426   1.400       .  A
C1167      H1171   1.084       .  S
C1168      C1169   1.395   1_545  A
C1169      H1172   1.085       .  S
C1173      C1174   1.408       .  A
C1173      C1178   1.415       .  A
C1173      C1278   1.494       .  S
C1174      C1175   1.406       .  A
C1174      H1179   1.084       .  S
C1175      C1176   1.397       .  A
C1175      C1225   1.481       .  S
C1176      C1177   1.401       .  A
C1176      H1180   1.085       .  S
C1177      C1178   1.417       .  A
C1177      C1205   1.495       .  S
C1178      H1181   1.082       .  S
Zn1182     O1186   1.902       .  S
Zn1182     O1447   1.987   1_554  S
Zn1182     O1191   1.981       .  S
Zn1182     O1198   1.974       .  S
Zn1183     O2746   1.970   1_455  S
Zn1183     O1188   2.069       .  S
Zn1183     O1450   2.091   1_554  S
Zn1183     O1194   2.052   1_554  S
Zn1184     O2746   1.955   1_455  S
Zn1184     O1189   2.056   1_455  S
Zn1184     O1192   2.009       .  S
Zn1184     O1195   2.047       .  S
Zn1185     O1186   1.959       .  S
Zn1185     O2753   2.019       .  S
Zn1185     O2236   2.021       .  S
Zn1185     O1197   2.037       .  S
O1186     Zn2743   1.960       .  S
O1186     Zn2744   1.953       .  S
O1187     Zn1442   1.959       .  S
O1187      C1199   1.266       .  A
O1188      C1200   1.283       .  A
O1189      C2761   1.278       .  A
O1190     Zn1443   2.078       .  S
O1190      C2759   1.280   1_455  A
O1191      C1201   1.269       .  A
O1192      C1200   1.273       .  A
O1193     Zn2745   2.011   1_455  S
O1193      C1202   1.273       .  A
O1195      C1202   1.279       .  A
O1196     Zn1705   2.043   1_465  S
O1196      C1203   1.278   1_554  A
O1197      C1204   1.275       .  A
O1198      C1204   1.268       .  A
C1199      C1294   1.482       .  S
C1199      O2750   1.284       .  A
C1200      C1206   1.485       .  S
C1201      C1234   1.472       .  S
C1201      O2749   1.278       .  A
C1202      C1262   1.479       .  S
C1203      C1213   1.480       .  S
C1204      C1209   1.464       .  S
C1205      C1206   1.344       .  D
C1205      H1207   1.087       .  S
C1206      H1208   1.085       .  S
C1209      C1210   1.341       .  D
C1209      H1211   1.087       .  S
C1213      C1214   1.344       .  D
C1213      H1475   1.087       .  S
C1214      C1419   1.483       .  S
C1214      H1216   1.087   1_556  S
H1215      C1473   1.087       .  S
C1217      C1218   1.352       .  D
C1217      H1219   1.083       .  S
C1218      C1417   1.493   1_554  S
C1218      H1480   1.087   1_554  S
H1220      C1478   1.088       .  S
C1221      C1222   1.346       .  D
C1221      H1223   1.083   1_554  S
C1222      C1426   1.489       .  S
C1222      H1484   1.087       .  S
H1224      C1482   1.088       .  S
C1225      C1226   1.343       .  D
C1225      H1227   1.087       .  S
C1226      H1228   1.087       .  S
C1229      C1230   1.346       .  D
C1229      H1231   1.088       .  S
C1230      H1232   1.086       .  S
C1233      C1234   1.340       .  D
C1233      H1235   1.087       .  S
C1234      H1236   1.088       .  S
C1237      C1238   1.344       .  D
C1237      H1239   1.086   1_565  S
C1238      H1240   1.087       .  S
C1241      C1242   1.348       .  D
C1241      H1243   1.082       .  S
C1245      C1246   1.345       .  D
C1245      H1247   1.086       .  S
C1246      H1248   1.081       .  S
C1249      C1250   1.342       .  D
C1249      H1251   1.082       .  S
C1253      C1254   1.345       .  D
C1253      H1255   1.088       .  S
C1254      H1256   1.086       .  S
C1257      C1258   1.344       .  D
C1257      H1259   1.086       .  S
C1258      H1260   1.086       .  S
C1261      C1262   1.342       .  D
C1261      H1263   1.087       .  S
C1265      C1266   1.341       .  D
C1265      H1267   1.087       .  S
C1266      H1268   1.087       .  S
C1269      C1270   1.348       .  D
C1269      H1271   1.087       .  S
C1270      H1272   1.084       .  S
C1273      C1274   1.344       .  D
C1273      H1275   1.079       .  S
C1274      H1276   1.087       .  S
C1277      C1278   1.349       .  D
C1277      H1279   1.087       .  S
C1278      H1280   1.084       .  S
C1281      C1282   1.339       .  D
C1281      H1283   1.088       .  S
C1282      H1284   1.087       .  S
C1285      C1286   1.345       .  D
C1285      H1287   1.086       .  S
C1286      H1288   1.087       .  S
C1289      C1290   1.348       .  D
C1289      H1291   1.084       .  S
C1290      H1292   1.087       .  S
C1293      C1294   1.343       .  D
C1293      H1295   1.085       .  S
C1294      H1296   1.088       .  S
C1297      C1298   1.350       .  D
C1297      H1299   1.087       .  S
C1298      H1300   1.084       .  S
C1301      C1302   1.411       .  A
C1301      C1306   1.409       .  A
C1301      C1553   1.500       .  S
C1302      C1303   1.401       .  A
C1302      H1307   1.082       .  S
C1303      C1304   1.403       .  A
C1303      C1550   1.482       .  S
C1304      C1305   1.407       .  A
C1304      H1308   1.084       .  S
C1305      C1306   1.415       .  A
C1305      C1557   1.497       .  S
C1306      H1309   1.078       .  S
Zn1310     O1314   1.942       .  S
Zn1310     O1315   1.978       .  S
Zn1310     O1319   1.999       .  S
Zn1310     O1326   2.002       .  S
Zn1311     O1314   1.981       .  S
Zn1311     O1316   2.039       .  S
Zn1311     O1318   2.059       .  S
Zn1311     O1322   2.045       .  S
Zn1312     O1314   1.978       .  S
Zn1312     O1317   2.058       .  S
Zn1312     O1320   2.039       .  S
Zn1312     O1323   2.044       .  S
Zn1313     O1314   1.957       .  S
Zn1313     O1321   2.014       .  S
Zn1313     O1324   2.014       .  S
Zn1313     O1325   2.041       .  S
O1315      C1327   1.269       .  A
O1316      C1328   1.276       .  A
O1317      C1329   1.277       .  A
O1318      C1327   1.279       .  A
O1319      C1329   1.272       .  A
O1320      C1328   1.276       .  A
O1321      C1330   1.276       .  A
O1322      C1331   1.277       .  A
O1323      C1330   1.277       .  A
O1324      C1331   1.274       .  A
O1325      C1332   1.273       .  A
O1326      C1332   1.270       .  A
C1328      C1537   1.486       .  S
C1329      C1549   1.479       .  S
C1330      C1541   1.478       .  S
C1331      C1530   1.479       .  S
C1332      C1533   1.482       .  S
C1333      C1334   1.413       .  A
C1333      C1338   1.409       .  A
C1334      C1335   1.406       .  A
C1335      C1336   1.406       .  A
C1335      C1529   1.493       .  S
C1336      C1337   1.399       .  A
C1336      H1340   1.083       .  S
C1337      C1338   1.404       .  A
C1337      C1525   1.478       .  S
C1338      H1341   1.084       .  S
C1342      C1343   1.407       .  A
C1342      C1347   1.415       .  A
C1342      C1517   1.491       .  S
C1343      C1344   1.407       .  A
C1343      H1348   1.079       .  S
C1344      C1345   1.396       .  A
C1344      C1546   1.482       .  S
C1345      C1346   1.395       .  A
C1345      H1349   1.085       .  S
C1346      C1347   1.404       .  A
C1346      C1513   1.474       .  S
C1347      H1350   1.083       .  S
Zn1351     O1355   1.944       .  S
Zn1351     O1356   2.009       .  S
Zn1351     O1360   1.984       .  S
Zn1352     O2915   1.960       .  S
Zn1352     O1357   2.004       .  S
Zn1352     O1359   2.029       .  S
Zn1352     O1363   2.026       .  S
Zn1353     O1355   1.996       .  S
Zn1353     O1358   2.054       .  S
Zn1353     O2921   2.048       .  S
Zn1353     O2924   2.071       .  S
Zn1354     O2915   1.960       .  S
Zn1354     O1362   2.015       .  S
Zn1354     O1365   2.031       .  S
O1355     Zn2912   1.954       .  S
O1355     Zn2914   1.957       .  S
O1356      C1368   1.271       .  A
O1357      C1369   1.274       .  A
O1358      C1370   1.276       .  A
O1359      C2928   1.273   1_455  A
O1360      C1370   1.273       .  A
O1361     Zn2913   2.056   1_455  S
O1361      C1369   1.277       .  A
O1362      C1371   1.274       .  A
O1363      C1372   1.274       .  A
O1364     Zn2913   2.071   1_455  S
O1364      C1371   1.280       .  A
O1365      C1372   1.276       .  A
O1366      C2933   1.272   1_455  A
O1367      C1373   1.276       .  A
C1368      C1509   1.471       .  S
C1368      O2919   1.271       .  A
C1369      C1526   1.486       .  S
C1370      C1514   1.482       .  S
C1371      C1505   1.484       .  S
C1372      C1501   1.482       .  S
C1373      C1558   1.487       .  S
C1373      O2926   1.273       .  A
C1374      C1379   1.403       .  A
C1374      C1497   1.480       .  S
C1375      C1376   1.401       .  A
C1375      H1380   1.084       .  S
C1376      C1377   1.406       .  A
C1376      C1542   1.478       .  S
C1377      H1381   1.081       .  S
C1378      C1379   1.399   1_545  A
C1379      H1382   1.084       .  S
C1383      C1384   1.401       .  A
C1383      C1388   1.411       .  A
C1384      C1385   1.403       .  A
C1385      C1386   1.396       .  A
C1385      C1489   1.475       .  S
C1386      C1387   1.399       .  A
C1386      H1390   1.085       .  S
C1387      C1388   1.404       .  A
C1387      C1493   1.479       .  S
C1388      H1391   1.080       .  S
Zn1392     O1396   1.973       .  S
Zn1392     O1397   2.052       .  S
Zn1392     O1401   2.028       .  S
Zn1392     O1408   2.024       .  S
Zn1393     O1396   1.934       .  S
Zn1393     O1398   2.024       .  S
Zn1393     O1400   2.011       .  S
Zn1393     O1404   1.996       .  S
Zn1394     O1396   1.957       .  S
Zn1394     O1399   1.995       .  S
Zn1395     O1396   1.975       .  S
Zn1395     O1406   2.019       .  S
Zn1395     O1407   2.022       .  S
O1397      C1409   1.277       .  A
O1398      C1410   1.275       .  A
O1399      C1411   1.274       .  A
O1400      C1409   1.272       .  A
O1401      C1411   1.275       .  A
O1403      C1412   1.277       .  A
O1404      C1413   1.274       .  A
O1405      C1412   1.269       .  A
O1406      C1413   1.272       .  A
O1407      C1414   1.274       .  A
O1408      C1414   1.273       .  A
C1409      C1518   1.480       .  S
C1410      C1481   1.488       .  S
C1411      C1477   1.475       .  S
C1412      C1498   1.472       .  S
C1413      C1490   1.468       .  S
C1415      C1416   1.407       .  A
C1415      C1420   1.406       .  A
C1415      C1506   1.492       .  S
C1416      C1417   1.407       .  A
C1416      H1421   1.084       .  S
C1418      H1422   1.082       .  S
C1419      C1420   1.408       .  A
C1420      H1423   1.083       .  S
C1424      C1429   1.404       .  A
C1424      C1534   1.487       .  S
C1425      C1426   1.409   1_556  A
C1425      H1430   1.074       .  S
C1427      H1431   1.084       .  S
C1428      C1429   1.404   1_545  A
C1429      H1432   1.083       .  S
C1433      C1434   1.407       .  A
C1433      C1438   1.411       .  A
C1433      C1538   1.490       .  S
C1434      C1435   1.406       .  A
C1434      H1439   1.084       .  S
C1435      C1436   1.400       .  A
C1435      C1485   1.483       .  S
C1436      C1437   1.403       .  A
C1436      H1440   1.085       .  S
C1437      C1438   1.413       .  A
C1437      C1465   1.495       .  S
C1438      H1441   1.081       .  S
Zn1442     O1446   1.915       .  S
Zn1442     O1451   1.980       .  S
Zn1442     O1458   1.975       .  S
Zn1443     O3006   1.989       .  S
Zn1443     O1448   2.058       .  S
Zn1443     O1454   2.048       .  S
Zn1444     O3006   1.965       .  S
Zn1444     O1449   2.046       .  S
Zn1444     O1452   2.005       .  S
Zn1444     O1455   2.017       .  S
Zn1445     O1446   1.973       .  S
Zn1445     O3013   2.025       .  S
Zn1445     O2496   2.023       .  S
Zn1445     O1457   2.028       .  S
O1446     Zn3003   1.988       .  S
O1446     Zn3004   1.959       .  S
O1447      C1459   1.269       .  A
O1448      C1460   1.280       .  A
O1449      C3021   1.274   1_455  A
O1450      C3019   1.282   1_455  A
O1451      C1461   1.268       .  A
O1452      C1460   1.272       .  A
O1453     Zn3005   2.026   1_455  S
O1453      C1462   1.274       .  A
O1455      C1462   1.275       .  A
O1456     Zn1965   2.032   1_465  S
O1456      C1463   1.276       .  A
O1457      C1464   1.274       .  A
O1458      C1464   1.268       .  A
C1459      C1554   1.478       .  S
C1459      O3010   1.279       .  A
C1460      C1466   1.481       .  S
C1461      C1494   1.482       .  S
C1461      O3009   1.273       .  A
C1462      C1522   1.477       .  S
C1463      C1473   1.480       .  S
C1464      C1469   1.464       .  S
C1465      C1466   1.345       .  D
C1465      H1467   1.087       .  S
C1466      H1468   1.084       .  S
C1469      C1470   1.341       .  D
C1469      H1471   1.087       .  S
C1473      C1474   1.344       .  D
C1474      H1476   1.087       .  S
C1477      C1478   1.345       .  D
C1477      H1479   1.085       .  S
C1481      C1482   1.348       .  D
C1481      H1483   1.084       .  S
C1485      C1486   1.344       .  D
C1485      H1487   1.087       .  S
C1486      H1488   1.087       .  S
C1489      C1490   1.340       .  D
C1489      H1491   1.088       .  S
C1490      H1492   1.086       .  S
C1493      C1494   1.348       .  D
C1493      H1495   1.088       .  S
C1494      H1496   1.086       .  S
C1497      C1498   1.340       .  D
C1497      H1499   1.084   1_565  S
C1498      H1500   1.087       .  S
C1501      C1502   1.347       .  D
C1501      H1503   1.084       .  S
C1505      C1506   1.347       .  D
C1505      H1507   1.087       .  S
C1506      H1508   1.083       .  S
C1509      C1510   1.345       .  D
C1509      H1511   1.082       .  S
C1513      C1514   1.345       .  D
C1513      H1515   1.087       .  S
C1514      H1516   1.086       .  S
C1517      C1518   1.346       .  D
C1517      H1519   1.086       .  S
C1518      H1520   1.086       .  S
C1521      C1522   1.345       .  D
C1521      H1523   1.087       .  S
C1525      C1526   1.346       .  D
C1525      H1527   1.087       .  S
C1526      H1528   1.087       .  S
C1529      C1530   1.348       .  D
C1529      H1531   1.087       .  S
C1530      H1532   1.086       .  S
C1533      C1534   1.347       .  D
C1533      H1535   1.083       .  S
C1534      H1536   1.087       .  S
C1537      C1538   1.348       .  D
C1537      H1539   1.086       .  S
C1538      H1540   1.084       .  S
C1541      C1542   1.343       .  D
C1541      H1543   1.087       .  S
C1542      H1544   1.087       .  S
C1545      C1546   1.344       .  D
C1545      H1547   1.085       .  S
C1546      H1548   1.088       .  S
C1549      C1550   1.344       .  D
C1549      H1551   1.084       .  S
C1550      H1552   1.087       .  S
C1553      C1554   1.348       .  D
C1553      H1555   1.087       .  S
C1554      H1556   1.085       .  S
C1557      C1558   1.350       .  D
C1557      H1559   1.087       .  S
C1558      H1560   1.085       .  S
C1561      C1562   1.414       .  A
C1561      C1566   1.416       .  A
C1561      C1813   1.499       .  S
C1562      C1563   1.405       .  A
C1562      H1567   1.084       .  S
C1563      C1564   1.394       .  A
C1563      C1810   1.483       .  S
C1564      C1565   1.398       .  A
C1564      H1568   1.085       .  S
C1565      C1566   1.414       .  A
C1565      C1817   1.487       .  S
C1566      H1569   1.078       .  S
Zn1570     O1574   1.949       .  S
Zn1570     O1575   2.021       .  S
Zn1570     O1579   2.018       .  S
Zn1570     O1586   2.026       .  S
Zn1571     O1574   1.958       .  S
Zn1571     O1576   2.011       .  S
Zn1571     O1578   2.024       .  S
Zn1571     O1582   2.013       .  S
Zn1572     O1574   1.989       .  S
Zn1572     O1577   2.045       .  S
Zn1572     O1580   2.063       .  S
Zn1572     O1583   2.044       .  S
Zn1573     O1574   1.960       .  S
Zn1573     O1581   1.995       .  S
Zn1573     O1584   2.018       .  S
Zn1573     O1585   2.007       .  S
O1575      C1587   1.276       .  A
O1576      C1588   1.273       .  A
O1577      C1589   1.275       .  A
O1578      C1587   1.272       .  A
O1579      C1589   1.276       .  A
O1580      C1588   1.279       .  A
O1581      C1590   1.271       .  A
O1582      C1591   1.274       .  A
O1583      C1590   1.277       .  A
O1584      C1591   1.272       .  A
O1585      C1592   1.269       .  A
O1586      C1592   1.275       .  A
C1587      C2325   1.481       .  S
C1588      C1797   1.483       .  S
C1589      C1809   1.482       .  S
C1590      C1801   1.471       .  S
C1591      C1790   1.477       .  S
C1592      C1793   1.477       .  S
C1593      C1594   1.402       .  A
C1593      C1598   1.412       .  A
C1593      C2301   1.489       .  S
C1594      C1595   1.402       .  A
C1594      H2119   1.085       .  S
C1595      C1596   1.407       .  A
C1595      C1789   1.487       .  S
C1596      C1597   1.404       .  A
C1596      H1600   1.081       .  S
C1597      C1598   1.407       .  A
C1597      C1785   1.486       .  S
C1598      H1601   1.081       .  S
H1599      C2634   1.085   1_545  S
C1602      C1603   1.408       .  A
C1602      C1607   1.401       .  A
C1602      C1777   1.481       .  S
C1603      C1604   1.403       .  A
C1603      H1608   1.081       .  S
C1604      C1605   1.414       .  A
C1604      C1806   1.494       .  S
C1605      C1606   1.409       .  A
C1605      H1609   1.081       .  S
C1606      C1607   1.396       .  A
C1606      C1773   1.486       .  S
C1607      H1610   1.085       .  S
Zn1611     O1615   1.948   1_655  S
Zn1611     O1616   2.015       .  S
Zn1611     O1620   1.982       .  S
Zn1611     O2667   2.023   1_545  S
Zn1612     O1617   2.036       .  S
Zn1612     O1619   2.014       .  S
Zn1612     O1623   2.031       .  S
Zn1613     O1615   1.990   1_655  S
Zn1613     O1618   2.058       .  S
Zn1614     O1622   1.999       .  S
Zn1614     O1625   2.022       .  S
Zn1614     O2666   2.020   1_545  S
O1616      C1628   1.275       .  A
O1617      C1629   1.275       .  A
O1618      C1630   1.278       .  A
O1620      C1630   1.269       .  A
O1621      C1629   1.276       .  A
O1622      C1631   1.271       .  A
O1623      C1632   1.274       .  A
O1624      C1631   1.279       .  A
O1625      C1632   1.273       .  A
O1626     Zn2134   2.026       .  S
O1627     Zn2131   2.045       .  S
O1627      C1633   1.278       .  A
C1628      C1769   1.475       .  S
C1629      C1786   1.481       .  S
C1630      C1774   1.473       .  S
C1631      C1765   1.477       .  S
C1632      C1761   1.481       .  S
C1633      C1818   1.486       .  S
C1634      C2155   1.407       .  A
C1634      C1639   1.408       .  A
C1634      C1757   1.490       .  S
C1635      C2674   1.402   1_545  A
C1635      C1636   1.403       .  A
C1635      H1640   1.084       .  S
C1636      C1637   1.399       .  A
C1636      C1802   1.476       .  S
C1637      C2678   1.409       .  A
C1637      H1641   1.079       .  S
C1638      C2157   1.408       .  A
C1638      C1639   1.406       .  A
C1638      C2282   1.493       .  S
C1639      H1642   1.084       .  S
C1643      C1644   1.402       .  A
C1643      C1648   1.410       .  A
C1643      C2290   1.483       .  S
C1644      C1645   1.403       .  A
C1644      H2169   1.083       .  S
C1645      C1646   1.399       .  A
C1645      C1749   1.476       .  S
C1646      C1647   1.407       .  A
C1646      H1650   1.082       .  S
C1647      C1648   1.401       .  A
C1647      C1753   1.490       .  S
C1648      H1651   1.081       .  S
H1649      C2684   1.083       .  S
Zn1652     O1656   1.939       .  S
Zn1652     O1657   2.009       .  S
Zn1652     O1661   1.986       .  S
Zn1652     O1668   1.990       .  S
Zn1653     O1656   1.917       .  S
Zn1653     O1658   1.984       .  S
Zn1653     O1660   2.012       .  S
Zn1653     O1664   1.977       .  S
Zn1654     O1656   1.960       .  S
Zn1654     O1659   2.044       .  S
Zn1654     O1922   2.079   1_554  S
Zn1654     O1925   2.014   1_554  S
Zn1655     O1656   1.978       .  S
Zn1655     O1923   2.049   1_554  S
Zn1655     O1666   2.042       .  S
Zn1655     O1667   2.035       .  S
O1657      C1669   1.269       .  A
O1658      C1670   1.269       .  A
O1659      C1671   1.280       .  A
O1660      C1669   1.273       .  A
O1661      C1671   1.270       .  A
O1662     Zn1914   2.061       .  S
O1662      C1930   1.277       .  A
O1663     Zn1915   2.047       .  S
O1663      C1672   1.277       .  A
O1664      C1673   1.272       .  A
O1665     Zn1914   2.021       .  S
O1665      C1672   1.274       .  A
O1666      C1673   1.275       .  A
O1667      C1674   1.276       .  A
O1668      C1674   1.270       .  A
C1669      C1778   1.474       .  S
C1670      C1741   1.479       .  S
C1670      O1922   1.280   1_554  A
C1671      C1737   1.475       .  S
C1672      C1758   1.482       .  S
C1673      C1750   1.471       .  S
C1674      C2266   1.467       .  S
C1675      C1676   1.404       .  A
C1675      C1680   1.399       .  A
C1675      C1766   1.481       .  S
C1676      C1677   1.405       .  A
C1676      H1681   1.084       .  S
C1677      C1938   1.411       .  A
C1677      C1998   1.493       .  S
C1678      C1937   1.408       .  A
C1678      C1939   1.406       .  A
C1678      H1682   1.083       .  S
C1679      C1938   1.407       .  A
C1679      C1680   1.404       .  A
C1679      C1994   1.479       .  S
C1680      H1683   1.084       .  S
C1684      C2205   1.413       .  A
C1684      C1689   1.400       .  A
C1684      C1794   1.482       .  S
C1685      C2724   1.413   1_545  A
C1685      C1686   1.416       .  A
C1685      H1690   1.080       .  S
C1686      C1947   1.408       .  A
C1686      C2002   1.495       .  S
C1687      C1946   1.412       .  A
C1687      C2988   1.405       .  A
C1687      H1691   1.082   1_556  S
C1688      C2467   1.403       .  A
C1688      C1689   1.394       .  A
C1688      C2510   1.482       .  S
C1689      H1692   1.085       .  S
C1693      C1694   1.403       .  A
C1693      C1698   1.414       .  A
C1693      C1798   1.494       .  S
C1694      C1695   1.405       .  A
C1694      H1699   1.083       .  S
C1695      C1696   1.401       .  A
C1695      C1745   1.480       .  S
C1696      C1697   1.403       .  A
C1696      H1700   1.085       .  S
C1697      C1698   1.416       .  A
C1697      C1725   1.500       .  S
C1698      H1701   1.078       .  S
Zn1702     O1706   1.916       .  S
Zn1702     O1967   1.963   1_554  S
Zn1702     O1711   1.978       .  S
Zn1702     O1718   1.974       .  S
Zn1703     O1708   2.083       .  S
Zn1703     O1970   2.105   1_554  S
Zn1703     O1714   2.059   1_554  S
Zn1704     O1709   2.037       .  S
Zn1704     O1712   1.986       .  S
Zn1704     O1715   1.998       .  S
Zn1705     O1706   1.982       .  S
Zn1705     O1717   2.069       .  S
O1707     Zn1962   1.988       .  S
O1707      C1719   1.271       .  A
O1708      C1720   1.283       .  A
O1710     Zn1963   2.112       .  S
O1711      C1721   1.266       .  A
O1712      C1720   1.271       .  A
O1713      C1722   1.272   1_565  A
O1714      C2763   1.278   1_546  A
O1715      C1722   1.274       .  A
O1716      C1723   1.278   1_554  A
O1717      C1724   1.277       .  A
O1718      C1724   1.269       .  A
C1719      C1814   1.494       .  S
C1720      C1726   1.481       .  S
C1721      C1754   1.470       .  S
C1722      C1782   1.468   1_545  S
C1723      C1733   1.484       .  S
C1723      O2234   1.279       .  A
C1724      C1729   1.481       .  S
C1725      C1726   1.345       .  D
C1725      H1727   1.087       .  S
C1726      H1728   1.083       .  S
C1729      C1730   1.351       .  D
C1729      H1731   1.086   1_545  S
C1730      C2988   1.486   1_554  S
C1730      H3032   1.088       .  S
H1732      C2510   1.087       .  S
C1733      C1734   1.346       .  D
C1733      H1995   1.087       .  S
C1734      C1939   1.486       .  S
C1734      H1736   1.087       .  S
H1735      C1993   1.087       .  S
C1737      C1738   1.341   1_554  D
C1737      H1739   1.086       .  S
C1738      C1937   1.484       .  S
C1738      H2000   1.087       .  S
H1740      C1998   1.087       .  S
C1741      C1742   1.345   1_554  D
C1741      H1743   1.086       .  S
C1742      C1946   1.498       .  S
C1742      H2004   1.087       .  S
H1744      C2002   1.087       .  S
C1745      C1746   1.343       .  D
C1745      H1747   1.087       .  S
C1746      C2714   1.474   1_545  S
C1746      H1748   1.087       .  S
C1749      C1750   1.342       .  D
C1749      H1751   1.089       .  S
C1750      H1752   1.086       .  S
C1753      C1754   1.343       .  D
C1753      H1755   1.087       .  S
C1754      H1756   1.085       .  S
C1757      C1758   1.347       .  D
C1757      H1759   1.086       .  S
C1758      H1760   1.087       .  S
C1761      C1762   1.352       .  D
C1761      H1763   1.082       .  S
C1762      C2678   1.498       .  S
C1762      H2804   1.087   1_545  S
H1764      C2282   1.087       .  S
C1765      C1766   1.342       .  D
C1765      H1767   1.087       .  S
C1766      H1768   1.082       .  S
C1769      C1770   1.345   1_545  D
C1769      H1771   1.084       .  S
C1770      C2683   1.484       .  S
C1770      H2812   1.087       .  S
H1772      C2290   1.087       .  S
C1773      C1774   1.340       .  D
C1773      H1775   1.087       .  S
C1774      H1776   1.087       .  S
C1777      C1778   1.343       .  D
C1777      H1779   1.088       .  S
C1778      H1780   1.085       .  S
C1781      C2633   1.467   1_545  S
C1781      C1782   1.341   1_545  D
C1781      H1783   1.087       .  S
C1782      H2824   1.087       .  S
H1784      C2302   1.085       .  S
C1785      C1786   1.347       .  D
C1785      H1787   1.086       .  S
C1786      H1788   1.087       .  S
C1789      C1790   1.346       .  D
C1789      H1791   1.087       .  S
C1790      H1792   1.085       .  S
C1793      C1794   1.339       .  D
C1793      H1795   1.083       .  S
C1794      H1796   1.087       .  S
C1797      C1798   1.345       .  D
C1797      H1799   1.086       .  S
C1798      H1800   1.087       .  S
C1801      C1802   1.340       .  D
C1801      H1803   1.088       .  S
C1802      H1804   1.087       .  S
C1805      C2627   1.478   1_545  S
C1805      C1806   1.342       .  D
C1805      H1807   1.085       .  S
C1806      H1808   1.087       .  S
C1809      C1810   1.343       .  D
C1809      H1811   1.086       .  S
C1810      H1812   1.088       .  S
C1813      C1814   1.356       .  D
C1813      H1815   1.087       .  S
C1814      H1816   1.081       .  S
C1817      C1818   1.343       .  D
C1817      H1819   1.088       .  S
C1818      H1820   1.086       .  S
C1821      C1822   1.420       .  A
C1821      C1826   1.404       .  A
C1821      C2073   1.497       .  S
C1822      C1823   1.406       .  A
C1822      H1827   1.081       .  S
C1823      C1824   1.400       .  A
C1823      C2070   1.485       .  S
C1824      C1825   1.401       .  A
C1824      H1828   1.083       .  S
C1825      C1826   1.406       .  A
C1825      C2077   1.487       .  S
C1826      H1829   1.081       .  S
Zn1830     O1834   1.939       .  S
Zn1830     O1835   1.975       .  S
Zn1830     O1839   1.995       .  S
Zn1830     O1846   2.012       .  S
Zn1831     O1834   1.966       .  S
Zn1831     O1836   2.027       .  S
Zn1831     O1838   2.054       .  S
Zn1831     O1842   2.041       .  S
Zn1832     O1834   1.988       .  S
Zn1832     O1837   2.071       .  S
Zn1832     O1840   2.069       .  S
Zn1832     O1843   2.059       .  S
Zn1833     O1834   1.946       .  S
Zn1833     O1841   1.989       .  S
Zn1833     O1844   1.999       .  S
Zn1833     O1845   2.009       .  S
O1835      C1847   1.267       .  A
O1836      C1848   1.275       .  A
O1837      C1849   1.279       .  A
O1838      C1847   1.278       .  A
O1839      C1849   1.273       .  A
O1840      C1848   1.281       .  A
O1841      C1850   1.271       .  A
O1842      C1851   1.277       .  A
O1843      C1850   1.279       .  A
O1844      C1851   1.271       .  A
O1845      C1852   1.269       .  A
O1846      C1852   1.273       .  A
C1847      C2585   1.472       .  S
C1848      C2057   1.489       .  S
C1849      C2069   1.485       .  S
C1850      C2061   1.470       .  S
C1851      C2050   1.476       .  S
C1852      C2053   1.476       .  S
C1853      C1854   1.400       .  A
C1853      C1858   1.410       .  A
C1853      C2561   1.480       .  S
C1854      C1855   1.401       .  A
C1854      H2379   1.085       .  S
C1855      C1856   1.409       .  A
C1855      C2049   1.489       .  S
C1856      C1857   1.408       .  A
C1856      H1860   1.081       .  S
C1857      C1858   1.406       .  A
C1857      C2045   1.491       .  S
C1858      H1861   1.084       .  S
H1859      C2894   1.085   1_545  S
C1862      C1863   1.406       .  A
C1862      C1867   1.415       .  A
C1862      C2037   1.491       .  S
C1863      C1864   1.406       .  A
C1863      H1868   1.079       .  S
C1864      C1865   1.396       .  A
C1864      C2066   1.482       .  S
C1865      C1866   1.396       .  A
C1865      H1869   1.085       .  S
C1866      C1867   1.405       .  A
C1866      C2033   1.476       .  S
C1867      H1870   1.083       .  S
Zn1871     O1875   1.948   1_655  S
Zn1871     O1876   2.007       .  S
Zn1871     O1880   1.991       .  S
Zn1871     O2927   2.033   1_545  S
Zn1872     O1877   2.010       .  S
Zn1872     O1879   1.999       .  S
Zn1872     O1883   2.009       .  S
Zn1873     O1875   1.998   1_655  S
Zn1873     O1878   2.056       .  S
Zn1874     O1882   2.006       .  S
Zn1874     O1885   2.025       .  S
Zn1874     O2926   2.027   1_545  S
O1876      C1888   1.273       .  A
O1877      C1889   1.271       .  A
O1878      C1890   1.277       .  A
O1880      C1890   1.274       .  A
O1881      C1889   1.277       .  A
O1882      C1891   1.273       .  A
O1883      C1892   1.271       .  A
O1884      C1891   1.276       .  A
O1885      C1892   1.274       .  A
O1886     Zn2394   2.039       .  S
O1887     Zn2391   2.018       .  S
O1887      C1893   1.274       .  A
C1888      C2029   1.468       .  S
C1889      C2046   1.482       .  S
C1890      C2034   1.483       .  S
C1891      C2025   1.473       .  S
C1892      C2021   1.476       .  S
C1893      C2078   1.480       .  S
C1894      C2415   1.404       .  A
C1894      C1899   1.408       .  A
C1894      C2017   1.484       .  S
C1895      C2934   1.402   1_545  A
C1895      C1896   1.404       .  A
C1895      H1900   1.081       .  S
C1896      C1897   1.400       .  A
C1896      C2062   1.482       .  S
C1897      C2938   1.410       .  A
C1897      H1901   1.081       .  S
C1898      C2417   1.408       .  A
C1898      C1899   1.406       .  A
C1898      C2542   1.493       .  S
C1899      H1902   1.084       .  S
C1903      C1904   1.405       .  A
C1903      C1908   1.404       .  A
C1903      C2550   1.483       .  S
C1904      C1905   1.408       .  A
C1904      H2429   1.083       .  S
C1905      C1906   1.402       .  A
C1905      C2009   1.483       .  S
C1906      C1907   1.406       .  A
C1906      H1910   1.084       .  S
C1907      C1908   1.395       .  A
C1907      C2013   1.483       .  S
C1908      H1911   1.074       .  S
H1909      C2944   1.085       .  S
Zn1912     O1916   1.976       .  S
Zn1912     O1917   2.060       .  S
Zn1912     O1921   2.038       .  S
Zn1912     O1928   2.026       .  S
Zn1913     O1916   1.935       .  S
Zn1913     O1918   2.007       .  S
Zn1913     O1920   2.004       .  S
Zn1913     O1924   2.004       .  S
Zn1914     O1916   1.964       .  S
Zn1914     O1919   2.017       .  S
Zn1915     O1916   1.976       .  S
Zn1915     O1926   2.035       .  S
Zn1915     O1927   2.030       .  S
O1917      C1929   1.278       .  A
O1918      C1930   1.274       .  A
O1919      C1931   1.276       .  A
O1920      C1929   1.271       .  A
O1921      C1931   1.276       .  A
O1923      C1932   1.279       .  A
O1924      C1933   1.274       .  A
O1925      C1932   1.273       .  A
O1926      C1933   1.274       .  A
O1927      C1934   1.276       .  A
O1928      C1934   1.274       .  A
C1929      C2038   1.481       .  S
C1930      C2001   1.491       .  S
C1931      C1997   1.483       .  S
C1932      C2018   1.481       .  S
C1933      C2010   1.476       .  S
C1934      C2526   1.479       .  S
C1935      C1936   1.404       .  A
C1935      C1940   1.407       .  A
C1935      C2026   1.482       .  S
C1936      C1937   1.395       .  A
C1936      H1941   1.084       .  S
C1938      H1942   1.081       .  S
C1939      C1940   1.410       .  A
C1940      H1943   1.084       .  S
C1944      C2465   1.411       .  A
C1944      C1949   1.399       .  A
C1944      C2054   1.481       .  S
C1945      C2984   1.410       .  A
C1945      C1946   1.404       .  A
C1945      H1950   1.080       .  S
C1947      C2728   1.402       .  A
C1947      H1951   1.084       .  S
C1948      C2207   1.395   1_556  A
C1948      C1949   1.399       .  A
C1948      C2250   1.475   1_556  S
C1949      H1952   1.083       .  S
C1953      C1954   1.405       .  A
C1953      C1958   1.413       .  A
C1953      C2058   1.493       .  S
C1954      C1955   1.406       .  A
C1954      H1959   1.084       .  S
C1955      C1956   1.401       .  A
C1955      C2005   1.487       .  S
C1956      C1957   1.405       .  A
C1956      H1960   1.085       .  S
C1957      C1958   1.418       .  A
C1957      C1985   1.501       .  S
C1958      H1961   1.079       .  S
Zn1962     O1966   1.920   1_655  S
Zn1962     O1971   1.975       .  S
Zn1962     O1978   1.976       .  S
Zn1963     O1968   2.082       .  S
Zn1963     O1974   2.039       .  S
Zn1964     O1969   2.036       .  S
Zn1964     O1972   1.994       .  S
Zn1964     O1975   2.009       .  S
Zn1965     O1966   1.975   1_655  S
Zn1965     O1977   2.050       .  S
O1967      C1979   1.266       .  A
O1968      C1980   1.284       .  A
O1971      C1981   1.266       .  A
O1972      C1980   1.271       .  A
O1973      C1982   1.275       .  A
O1974      C3023   1.278   1_545  A
O1975      C1982   1.274       .  A
O1976      C1983   1.278       .  A
O1977      C1984   1.276       .  A
O1978      C1984   1.267       .  A
C1979      C2074   1.480       .  S
C1980      C1986   1.481       .  S
C1981      C2014   1.471       .  S
C1982      C2042   1.475       .  S
C1983      C1993   1.473       .  S
C1983      O2494   1.276       .  A
C1984      C1989   1.467       .  S
C1985      C1986   1.344       .  D
C1985      H1987   1.087       .  S
C1986      H1988   1.083       .  S
C1989      C1990   1.338       .  D
C1989      H1991   1.087       .  S
C1990      C2728   1.482       .  S
C1990      H2772   1.087   1_545  S
H1992      C2250   1.088       .  S
C1993      C1994   1.344       .  D
C1994      H1996   1.087       .  S
C1997      C1998   1.348       .  D
C1997      H1999   1.084       .  S
C2001      C2002   1.351       .  D
C2001      H2003   1.084       .  S
C2005      C2006   1.344       .  D
C2005      H2007   1.087       .  S
C2006      C2974   1.477   1_545  S
C2006      H2008   1.087       .  S
C2009      C2010   1.344       .  D
C2009      H2011   1.088       .  S
C2010      H2012   1.085       .  S
C2013      C2014   1.338       .  D
C2013      H2015   1.087       .  S
C2014      H2016   1.087       .  S
C2017      C2018   1.343       .  D
C2017      H2019   1.084       .  S
C2018      H2020   1.087       .  S
C2021      C2022   1.346       .  D
C2021      H2023   1.083       .  S
C2022      C2938   1.491       .  S
C2022      H3064   1.087   1_545  S
H2024      C2542   1.087       .  S
C2025      C2026   1.345       .  D
C2025      H2027   1.087       .  S
C2026      H2028   1.085       .  S
C2029      C2030   1.338   1_545  D
C2029      H2031   1.083   1_545  S
C2030      C2943   1.474       .  S
C2030      H3072   1.087       .  S
H2032      C2550   1.087       .  S
C2033      C2034   1.345       .  D
C2033      H2035   1.088       .  S
C2034      H2036   1.086       .  S
C2037      C2038   1.345       .  D
C2037      H2039   1.087       .  S
C2038      H2040   1.087       .  S
C2041      C2893   1.475   1_545  S
C2041      C2042   1.343       .  D
C2041      H2043   1.087       .  S
C2042      H3084   1.085   1_545  S
H2044      C2562   1.087       .  S
C2045      C2046   1.347       .  D
C2045      H2047   1.086       .  S
C2046      H2048   1.087       .  S
C2049      C2050   1.344       .  D
C2049      H2051   1.087       .  S
C2050      H2052   1.085       .  S
C2053      C2054   1.341       .  D
C2053      H2055   1.083       .  S
C2054      H2056   1.087       .  S
C2057      C2058   1.346       .  D
C2057      H2059   1.087       .  S
C2058      H2060   1.084       .  S
C2061      C2062   1.340       .  D
C2061      H2063   1.088       .  S
C2062      H2064   1.087       .  S
C2065      C2887   1.478   1_545  S
C2065      C2066   1.344       .  D
C2065      H2067   1.086       .  S
C2066      H2068   1.087       .  S
C2069      C2070   1.348       .  D
C2069      H2071   1.085       .  S
C2070      H2072   1.087       .  S
C2073      C2074   1.342       .  D
C2073      H2075   1.088       .  S
C2074      H2076   1.087       .  S
C2077      C2078   1.347       .  D
C2077      H2079   1.086       .  S
C2078      H2080   1.084       .  S
C2081      C2082   1.421       .  A
C2081      C2086   1.405       .  A
C2081      C2333   1.497       .  S
C2082      C2083   1.409       .  A
C2082      H2087   1.081       .  S
C2083      C2084   1.399       .  A
C2083      C2330   1.487       .  S
C2084      C2085   1.398       .  A
C2084      H2088   1.085       .  S
C2085      C2086   1.403       .  A
C2085      C2337   1.482       .  S
C2086      H2089   1.079       .  S
Zn2090     O2094   1.950       .  S
Zn2090     O2095   2.007       .  S
Zn2090     O2099   1.996       .  S
Zn2090     O2106   2.025       .  S
Zn2091     O2094   1.962       .  S
Zn2091     O2096   2.004       .  S
Zn2091     O2098   2.030       .  S
Zn2091     O2102   2.009       .  S
Zn2092     O2094   1.993       .  S
Zn2092     O2097   2.076       .  S
Zn2092     O2100   2.090       .  S
Zn2092     O2103   2.070       .  S
Zn2093     O2094   1.952       .  S
Zn2093     O2101   1.996       .  S
Zn2093     O2104   2.011       .  S
Zn2093     O2105   2.005       .  S
O2095      C2107   1.273       .  A
O2096      C2108   1.271       .  A
O2097      C2109   1.280       .  A
O2098      C2107   1.272       .  A
O2099      C2109   1.274       .  A
O2100      C2108   1.283       .  A
O2101      C2110   1.271       .  A
O2102      C2111   1.273       .  A
O2103      C2110   1.280       .  A
O2104      C2111   1.271       .  A
O2105      C2112   1.270       .  A
O2106      C2112   1.273       .  A
C2107      C2845   1.481       .  S
C2108      C2317   1.488       .  S
C2109      C2329   1.486       .  S
C2110      C2321   1.477       .  S
C2111      C2310   1.473       .  S
C2112      C2313   1.474       .  S
C2113      C2114   1.402       .  A
C2113      C2118   1.414       .  A
C2113      C2821   1.488       .  S
C2114      C2115   1.400       .  A
C2114      H2639   1.085       .  S
C2115      C2116   1.405       .  A
C2115      C2309   1.482       .  S
C2116      C2117   1.399       .  A
C2116      H2120   1.083       .  S
C2117      C2118   1.407       .  A
C2117      C2305   1.483       .  S
C2118      H2121   1.077       .  S
C2122      C2123   1.411       .  A
C2122      C2127   1.422       .  A
C2122      C2297   1.502       .  S
C2123      C2124   1.407       .  A
C2123      H2128   1.081       .  S
C2124      C2125   1.395       .  A
C2124      C2326   1.483       .  S
C2125      C2126   1.396       .  A
C2125      H2129   1.085       .  S
C2126      C2127   1.409       .  A
C2126      C2293   1.486       .  S
C2127      H2130   1.081       .  S
Zn2131     O2135   1.957       .  S
Zn2131     O2136   2.027       .  S
Zn2131     O2140   2.018       .  S
Zn2132     O2137   2.029       .  S
Zn2132     O2139   2.031       .  S
Zn2132     O2143   2.025       .  S
Zn2133     O2135   1.996       .  S
Zn2133     O2138   2.058       .  S
Zn2134     O2142   2.011       .  S
Zn2134     O2145   2.019       .  S
O2136      C2148   1.275       .  A
O2137      C2149   1.277       .  A
O2138      C2150   1.278       .  A
O2140      C2150   1.277       .  A
O2141      C2149   1.277       .  A
O2142      C2151   1.273       .  A
O2143      C2152   1.274       .  A
O2144      C2151   1.278       .  A
O2145      C2152   1.274       .  A
O2146     Zn2654   2.016       .  S
O2147     Zn2651   1.995       .  S
O2147      C2153   1.272       .  A
C2148      C2289   1.472       .  S
C2149      C2306   1.488       .  S
C2150      C2294   1.488       .  S
C2151      C2285   1.482       .  S
C2152      C2281   1.479       .  S
C2153      C2338   1.477       .  S
C2154      C2675   1.407       .  A
C2154      C2159   1.408       .  A
C2154      C2277   1.483       .  S
C2155      C2156   1.408       .  A
C2155      H2160   1.083       .  S
C2156      C2157   1.402       .  A
C2156      C2322   1.487       .  S
C2157      H2161   1.080       .  S
C2158      C2677   1.404       .  A
C2158      C2159   1.401       .  A
C2158      C2802   1.486       .  S
C2159      H2162   1.084       .  S
C2163      C2164   1.403       .  A
C2163      C2168   1.407       .  A
C2163      C2810   1.478       .  S
C2164      C2165   1.405       .  A
C2164      H2689   1.082       .  S
C2165      C2166   1.401       .  A
C2165      C2269   1.482       .  S
C2166      C2167   1.407       .  A
C2166      H2170   1.083       .  S
C2167      C2168   1.398       .  A
C2167      C2273   1.488       .  S
C2168      H2171   1.080       .  S
Zn2172     O2176   1.974       .  S
Zn2172     O2177   2.086       .  S
Zn2172     O2181   2.028       .  S
Zn2172     O2188   2.023       .  S
Zn2173     O2176   1.919       .  S
Zn2173     O2178   1.988       .  S
Zn2173     O2180   1.993       .  S
Zn2173     O2184   1.984       .  S
Zn2174     O2176   1.964       .  S
Zn2174     O2179   2.003       .  S
Zn2174     O2442   2.048       .  S
Zn2174     O2445   2.016   1_554  S
Zn2175     O2176   1.987       .  S
Zn2175     O2443   2.066   1_554  S
Zn2175     O2186   2.042       .  S
Zn2175     O2187   2.043       .  S
O2177      C2189   1.280       .  A
O2178      C2190   1.269       .  A
O2179      C2191   1.274       .  A
O2180      C2189   1.269       .  A
O2181      C2191   1.276       .  A
O2182     Zn2434   2.042       .  S
O2182      C2450   1.274       .  A
O2183     Zn2435   2.045       .  S
O2183      C2192   1.278       .  A
O2184      C2193   1.273       .  A
O2185     Zn2434   2.002       .  S
O2185      C2192   1.271       .  A
O2186      C2193   1.275       .  A
O2187      C2194   1.278       .  A
O2188      C2194   1.275       .  A
C2189      C2298   1.486       .  S
C2190      C2261   1.471       .  S
C2190      O2442   1.274       .  A
C2191      C2257   1.475       .  S
C2192      C2278   1.477       .  S
C2193      C2270   1.475       .  S
C2194      C2786   1.479       .  S
C2195      C2196   1.410       .  A
C2195      C2200   1.408       .  A
C2195      C2286   1.492       .  S
C2196      C2197   1.404       .  A
C2196      H2201   1.083       .  S
C2197      C2458   1.406       .  A
C2197      C2518   1.490       .  S
C2198      C2457   1.406       .  A
C2198      C2459   1.401       .  A
C2198      H2202   1.082   1_556  S
C2199      C2458   1.405       .  A
C2199      C2200   1.409       .  A
C2199      C2514   1.488       .  S
C2200      H2203   1.083       .  S
C2204      C2725   1.408       .  A
C2204      C2209   1.403       .  A
C2204      C2314   1.485       .  S
C2205      C2206   1.412       .  A
C2205      H2210   1.080       .  S
C2206      C2467   1.405       .  A
C2206      C2522   1.491       .  S
C2207      C2466   1.407   1_554  A
C2207      H2211   1.083       .  S
C2208      C2987   1.403       .  A
C2208      C2209   1.406       .  A
C2208      C3030   1.482       .  S
C2209      H2212   1.084       .  S
C2213      C2214   1.401       .  A
C2213      C2218   1.418       .  A
C2213      C2318   1.495       .  S
C2214      C2215   1.402       .  A
C2214      H2219   1.085       .  S
C2215      C2216   1.397       .  A
C2215      C2265   1.477       .  S
C2216      C2217   1.403       .  A
C2216      H2220   1.085       .  S
C2217      C2218   1.421       .  A
C2217      C2245   1.502       .  S
C2218      H2221   1.079       .  S
Zn2222     O2226   1.904       .  S
Zn2222     O2487   1.950   1_554  S
Zn2222     O2231   1.962       .  S
Zn2222     O2238   1.980       .  S
Zn2223     O2228   2.088       .  S
Zn2223     O2490   2.122   1_554  S
Zn2223     O2234   2.041   1_554  S
Zn2224     O2229   2.064       .  S
Zn2224     O2232   2.002       .  S
Zn2224     O2235   2.045       .  S
Zn2225     O2226   1.957       .  S
Zn2225     O2237   2.016       .  S
O2227     Zn2482   1.966       .  S
O2227      C2239   1.266       .  A
O2228      C2240   1.286       .  A
O2230     Zn2483   2.082       .  S
O2231      C2241   1.264       .  A
O2232      C2240   1.273       .  A
O2233      C2242   1.275       .  A
O2235      C2242   1.278       .  A
O2236      C2243   1.275       .  A
O2237      C2244   1.270       .  A
O2238      C2244   1.270       .  A
C2239      C2334   1.482       .  S
C2240      C2246   1.485       .  S
C2241      C2274   1.472       .  S
C2242      C2302   1.485       .  S
C2243      C2253   1.476   1_554  S
C2243      O2754   1.279       .  A
C2244      C2249   1.469       .  S
C2245      C2246   1.343       .  D
C2245      H2247   1.088       .  S
C2246      H2248   1.083       .  S
C2249      C2250   1.342       .  D
C2249      H2251   1.086       .  S
H2252      C3030   1.087       .  S
C2253      C2254   1.342       .  D
C2253      H2515   1.087       .  S
C2254      C2459   1.479       .  S
C2254      H2256   1.088   1_556  S
H2255      C2513   1.087       .  S
C2257      C2258   1.346   1_554  D
C2257      H2259   1.085       .  S
C2258      C2457   1.486       .  S
C2258      H2520   1.087       .  S
H2260      C2518   1.087       .  S
C2261      C2262   1.345   1_554  D
C2261      H2263   1.086       .  S
C2262      C2466   1.491       .  S
C2262      H2524   1.086       .  S
H2264      C2522   1.088       .  S
C2265      C2266   1.340       .  D
C2265      H2267   1.087       .  S
C2266      H2268   1.087       .  S
C2269      C2270   1.345       .  D
C2269      H2271   1.088       .  S
C2270      H2272   1.085       .  S
C2273      C2274   1.340       .  D
C2273      H2275   1.087       .  S
C2274      H2276   1.087       .  S
C2277      C2278   1.342       .  D
C2277      H2279   1.084       .  S
C2278      H2280   1.087       .  S
C2281      C2282   1.349       .  D
C2281      H2283   1.083       .  S
H2284      C2802   1.087       .  S
C2285      C2286   1.346       .  D
C2285      H2287   1.086       .  S
C2286      H2288   1.083       .  S
C2289      C2290   1.341       .  D
C2289      H2291   1.081       .  S
H2292      C2810   1.087       .  S
C2293      C2294   1.345       .  D
C2293      H2295   1.088       .  S
C2294      H2296   1.086       .  S
C2297      C2298   1.347       .  D
C2297      H2299   1.087       .  S
C2298      H2300   1.084       .  S
C2301      C2302   1.346       .  D
C2301      H2303   1.087       .  S
H2304      C2822   1.086       .  S
C2305      C2306   1.346       .  D
C2305      H2307   1.087       .  S
C2306      H2308   1.087       .  S
C2309      C2310   1.344       .  D
C2309      H2311   1.087       .  S
C2310      H2312   1.086       .  S
C2313      C2314   1.344       .  D
C2313      H2315   1.084       .  S
C2314      H2316   1.087       .  S
C2317      C2318   1.342       .  D
C2317      H2319   1.086       .  S
C2318      H2320   1.085       .  S
C2321      C2322   1.342       .  D
C2321      H2323   1.087       .  S
C2322      H2324   1.087       .  S
C2325      C2326   1.344       .  D
C2325      H2327   1.086       .  S
C2326      H2328   1.087       .  S
C2329      C2330   1.347       .  D
C2329      H2331   1.085       .  S
C2330      H2332   1.088       .  S
C2333      C2334   1.341       .  D
C2333      H2335   1.084       .  S
C2334      H2336   1.085       .  S
C2337      C2338   1.346       .  D
C2337      H2339   1.087       .  S
C2338      H2340   1.085       .  S
C2341      C2342   1.412       .  A
C2341      C2346   1.401       .  A
C2341      C2593   1.495       .  S
C2342      C2343   1.401       .  A
C2342      H2347   1.083       .  S
C2343      C2344   1.404       .  A
C2343      C2590   1.484       .  S
C2344      C2345   1.409       .  A
C2344      H2348   1.084       .  S
C2345      C2346   1.408       .  A
C2345      C2597   1.491       .  S
C2346      H2349   1.074       .  S
Zn2350     O2354   1.961       .  S
Zn2350     O2355   2.033       .  S
Zn2350     O2359   2.026       .  S
Zn2350     O2366   2.038       .  S
Zn2351     O2354   1.967       .  S
Zn2351     O2356   2.028       .  S
Zn2351     O2358   2.030       .  S
Zn2351     O2362   2.031       .  S
Zn2352     O2354   1.987       .  S
Zn2352     O2357   2.060       .  S
Zn2352     O2360   2.057       .  S
Zn2352     O2363   2.063       .  S
Zn2353     O2354   1.958       .  S
Zn2353     O2361   1.988       .  S
Zn2353     O2364   1.988       .  S
Zn2353     O2365   2.013       .  S
O2355      C2367   1.276       .  A
O2356      C2368   1.274       .  A
O2357      C2369   1.278       .  A
O2358      C2367   1.275       .  A
O2359      C2369   1.277       .  A
O2360      C2368   1.279       .  A
O2361      C2370   1.272       .  A
O2362      C2371   1.276       .  A
O2363      C2370   1.278       .  A
O2364      C2371   1.267       .  A
O2365      C2372   1.270       .  A
O2366      C2372   1.276       .  A
C2367      C3105   1.483       .  S
C2368      C2577   1.488       .  S
C2369      C2589   1.484       .  S
C2370      C2581   1.480       .  S
C2371      C2570   1.474       .  S
C2372      C2573   1.481       .  S
C2373      C2374   1.396       .  A
C2373      C2378   1.410       .  A
C2373      C3081   1.479       .  S
C2374      C2375   1.396       .  A
C2374      H2899   1.085       .  S
C2375      C2376   1.410       .  A
C2375      C2569   1.482       .  S
C2376      C2377   1.405       .  A
C2376      H2380   1.082       .  S
C2377      C2378   1.407       .  A
C2377      C2565   1.484       .  S
C2378      H2381   1.080       .  S
C2382      C2383   1.399       .  A
C2382      C2387   1.415       .  A
C2382      C2557   1.485       .  S
C2383      C2384   1.395       .  A
C2383      H2388   1.080       .  S
C2384      C2385   1.408       .  A
C2384      C2586   1.486       .  S
C2385      C2386   1.403       .  A
C2385      H2389   1.083       .  S
C2386      C2387   1.409       .  A
C2386      C2553   1.486       .  S
C2387      H2390   1.083       .  S
Zn2391     O2395   1.950       .  S
Zn2391     O2396   2.004       .  S
Zn2391     O2400   2.002       .  S
Zn2392     O2397   2.046       .  S
Zn2392     O2399   2.050       .  S
Zn2392     O2403   2.039       .  S
Zn2393     O2395   1.986       .  S
Zn2393     O2398   2.067       .  S
Zn2394     O2402   2.004       .  S
Zn2394     O2405   2.019       .  S
O2396      C2408   1.272       .  A
O2397      C2409   1.277       .  A
O2398      C2410   1.278       .  A
O2400      C2410   1.273       .  A
O2401      C2409   1.275       .  A
O2402      C2411   1.272       .  A
O2403      C2412   1.276       .  A
O2404      C2411   1.280       .  A
O2405      C2412   1.275       .  A
O2406     Zn2914   2.029       .  S
O2407     Zn2911   2.004       .  S
O2407      C2413   1.271       .  A
C2408      C2549   1.474       .  S
C2409      C2566   1.488       .  S
C2410      C2554   1.488       .  S
C2411      C2545   1.480       .  S
C2412      C2541   1.482       .  S
C2413      C2598   1.483       .  S
C2414      C2935   1.409       .  A
C2414      C2419   1.404       .  A
C2414      C2537   1.491       .  S
C2415      C2416   1.404       .  A
C2415      H2420   1.084       .  S
C2416      C2417   1.404       .  A
C2416      C2582   1.478       .  S
C2417      H2421   1.082       .  S
C2418      C2937   1.409       .  A
C2418      C2419   1.403       .  A
C2418      C3062   1.490       .  S
C2419      H2422   1.084       .  S
C2423      C2424   1.407       .  A
C2423      C2428   1.407       .  A
C2423      C3070   1.485       .  S
C2424      C2425   1.406       .  A
C2424      H2949   1.084       .  S
C2425      C2426   1.401       .  A
C2425      C2529   1.482       .  S
C2426      C2427   1.407       .  A
C2426      H2430   1.084       .  S
C2427      C2428   1.399       .  A
C2427      C2533   1.485       .  S
C2428      H2431   1.079       .  S
Zn2432     O2436   1.969       .  S
Zn2432     O2437   2.057       .  S
Zn2432     O2441   2.049       .  S
Zn2432     O2448   2.017       .  S
Zn2433     O2436   1.935       .  S
Zn2433     O2438   2.010       .  S
Zn2433     O2440   1.990       .  S
Zn2433     O2444   2.001       .  S
Zn2434     O2436   1.959       .  S
Zn2434     O2439   2.009       .  S
Zn2435     O2436   1.978       .  S
Zn2435     O2446   2.044       .  S
Zn2435     O2447   2.033       .  S
O2437      C2449   1.279       .  A
O2438      C2450   1.274       .  A
O2439      C2451   1.274       .  A
O2440      C2449   1.269       .  A
O2441      C2451   1.277       .  A
O2443      C2452   1.279       .  A
O2444      C2453   1.273       .  A
O2445      C2452   1.273       .  A
O2446      C2453   1.275       .  A
O2447      C2454   1.276       .  A
O2448      C2454   1.273       .  A
C2449      C2558   1.477       .  S
C2450      C2521   1.484       .  S
C2451      C2517   1.483       .  S
C2452      C2538   1.485       .  S
C2453      C2530   1.480       .  S
C2454      C3046   1.476       .  S
C2455      C2456   1.407       .  A
C2455      C2460   1.404       .  A
C2455      C2546   1.483       .  S
C2456      C2457   1.403       .  A
C2456      H2461   1.083       .  S
C2458      H2462   1.083       .  S
C2459      C2460   1.405       .  A
C2460      H2463   1.084       .  S
C2464      C2985   1.411       .  A
C2464      C2469   1.400       .  A
C2464      C2574   1.486       .  S
C2465      C2466   1.406       .  A
C2465      H2470   1.078       .  S
C2467      H2471   1.084       .  S
C2468      C2727   1.397       .  A
C2468      C2469   1.402       .  A
C2468      C2770   1.475   1_556  S
C2469      H2472   1.083       .  S
C2473      C2474   1.406       .  A
C2473      C2478   1.411       .  A
C2473      C2578   1.489       .  S
C2474      C2475   1.405       .  A
C2474      H2479   1.084       .  S
C2475      C2476   1.401       .  A
C2475      C2525   1.483       .  S
C2476      C2477   1.403       .  A
C2476      H2480   1.085       .  S
C2477      C2478   1.415       .  A
C2477      C2505   1.496       .  S
C2478      H2481   1.080       .  S
Zn2482     O2486   1.913       .  S
Zn2482     O2491   1.975       .  S
Zn2482     O2498   1.971       .  S
Zn2483     O2488   2.063       .  S
Zn2483     O2494   2.026       .  S
Zn2484     O2489   2.043       .  S
Zn2484     O2492   2.006       .  S
Zn2484     O2495   2.040       .  S
Zn2485     O2486   1.980       .  S
Zn2485     O2497   2.050       .  S
O2487      C2499   1.265       .  A
O2488      C2500   1.281       .  A
O2491      C2501   1.266       .  A
O2492      C2500   1.274       .  A
O2493      C2502   1.274       .  A
O2495      C2502   1.277       .  A
O2496      C2503   1.274       .  A
O2497      C2504   1.276       .  A
O2498      C2504   1.267       .  A
C2499      C2594   1.475       .  S
C2500      C2506   1.481       .  S
C2501      C2534   1.471       .  S
C2502      C2562   1.478       .  S
C2503      C2513   1.482       .  S
C2503      O3014   1.279       .  A
C2504      C2509   1.467       .  S
C2505      C2506   1.345       .  D
C2505      H2507   1.087       .  S
C2506      H2508   1.083       .  S
C2509      C2510   1.340       .  D
C2509      H2511   1.087       .  S
H2512      C2770   1.088       .  S
C2513      C2514   1.344       .  D
C2514      H2516   1.087       .  S
C2517      C2518   1.350       .  D
C2517      H2519   1.086       .  S
C2521      C2522   1.348       .  D
C2521      H2523   1.084       .  S
C2525      C2526   1.345       .  D
C2525      H2527   1.087       .  S
C2526      H2528   1.087       .  S
C2529      C2530   1.345       .  D
C2529      H2531   1.088       .  S
C2530      H2532   1.086       .  S
C2533      C2534   1.341       .  D
C2533      H2535   1.087       .  S
C2534      H2536   1.087       .  S
C2537      C2538   1.346       .  D
C2537      H2539   1.084       .  S
C2538      H2540   1.087       .  S
C2541      C2542   1.349       .  D
C2541      H2543   1.084       .  S
H2544      C3062   1.087       .  S
C2545      C2546   1.343       .  D
C2545      H2547   1.087       .  S
C2546      H2548   1.081       .  S
C2549      C2550   1.347       .  D
C2549      H2551   1.085       .  S
H2552      C3070   1.087       .  S
C2553      C2554   1.349       .  D
C2553      H2555   1.087       .  S
C2554      H2556   1.086       .  S
C2557      C2558   1.340       .  D
C2557      H2559   1.087       .  S
C2558      H2560   1.087       .  S
C2561      C2562   1.342       .  D
C2561      H2563   1.086       .  S
H2564      C3082   1.086       .  S
C2565      C2566   1.346       .  D
C2565      H2567   1.086       .  S
C2566      H2568   1.087       .  S
C2569      C2570   1.339       .  D
C2569      H2571   1.087       .  S
C2570      H2572   1.086       .  S
C2573      C2574   1.342       .  D
C2573      H2575   1.086       .  S
C2574      H2576   1.087       .  S
C2577      C2578   1.345       .  D
C2577      H2579   1.087       .  S
C2578      H2580   1.083       .  S
C2581      C2582   1.347       .  D
C2581      H2583   1.086       .  S
C2582      H2584   1.088       .  S
C2585      C2586   1.339       .  D
C2585      H2587   1.086       .  S
C2586      H2588   1.088       .  S
C2589      C2590   1.345       .  D
C2589      H2591   1.086       .  S
C2590      H2592   1.087       .  S
C2593      C2594   1.342       .  D
C2593      H2595   1.086       .  S
C2594      H2596   1.086       .  S
C2597      C2598   1.353       .  D
C2597      H2599   1.087       .  S
C2598      H2600   1.085       .  S
C2601      C2602   1.405       .  A
C2601      C2606   1.402       .  A
C2601      C2853   1.488       .  S
C2602      C2603   1.397       .  A
C2602      H2607   1.084       .  S
C2603      C2604   1.402       .  A
C2603      C2850   1.473       .  S
C2604      C2605   1.404       .  A
C2604      H2608   1.084       .  S
C2605      C2606   1.409       .  A
C2605      C2857   1.491       .  S
C2606      H2609   1.069       .  S
Zn2610     O2614   1.930       .  S
Zn2610     O2615   1.981       .  S
Zn2610     O2619   2.002       .  S
Zn2610     O2626   2.006       .  S
Zn2611     O2614   1.988       .  S
Zn2611     O2616   2.070       .  S
Zn2611     O2618   2.080       .  S
Zn2611     O2622   2.048       .  S
Zn2612     O2614   1.963       .  S
Zn2612     O2617   2.028       .  S
Zn2612     O2620   2.013       .  S
Zn2612     O2623   2.044       .  S
Zn2613     O2614   1.948       .  S
Zn2613     O2621   1.992       .  S
Zn2613     O2624   1.965       .  S
Zn2613     O2625   2.023       .  S
O2615      C2627   1.269       .  A
O2616      C2628   1.279       .  A
O2617      C2629   1.273       .  A
O2618      C2627   1.282       .  A
O2619      C2629   1.273       .  A
O2620      C2628   1.273       .  A
O2621      C2630   1.273       .  A
O2622      C2631   1.279       .  A
O2623      C2630   1.275       .  A
O2624      C2631   1.267       .  A
O2625      C2632   1.269       .  A
O2626      C2632   1.272       .  A
C2628      C2837   1.485       .  S
C2629      C2849   1.471       .  S
C2630      C2841   1.478       .  S
C2631      C2830   1.465       .  S
C2632      C2833   1.482       .  S
C2633      C2634   1.400       .  A
C2633      C2638   1.406       .  A
C2634      C2635   1.394       .  A
C2635      C2636   1.406       .  A
C2635      C2829   1.477       .  S
C2636      C2637   1.399       .  A
C2636      H2640   1.084       .  S
C2637      C2638   1.403       .  A
C2637      C2825   1.476       .  S
C2638      H2641   1.084       .  S
C2642      C2643   1.409       .  A
C2642      C2647   1.416       .  A
C2642      C2817   1.493       .  S
C2643      C2644   1.406       .  A
C2643      H2648   1.080       .  S
C2644      C2645   1.397       .  A
C2644      C2846   1.484       .  S
C2645      C2646   1.396       .  A
C2645      H2649   1.085       .  S
C2646      C2647   1.405       .  A
C2646      C2813   1.477       .  S
C2647      H2650   1.082       .  S
Zn2651     O2655   1.935   1_655  S
Zn2651     O2656   1.996       .  S
Zn2651     O2660   1.978       .  S
Zn2652     O2657   2.008       .  S
Zn2652     O2659   2.007       .  S
Zn2652     O2663   2.008       .  S
Zn2653     O2655   1.983   1_655  S
Zn2653     O2658   2.062       .  S
Zn2654     O2662   2.000       .  S
Zn2654     O2665   2.021       .  S
O2656      C2668   1.270       .  A
O2657      C2669   1.274       .  A
O2658      C2670   1.277       .  A
O2660      C2670   1.271       .  A
O2661      C2669   1.274       .  A
O2662      C2671   1.272       .  A
O2663      C2672   1.271       .  A
O2664      C2671   1.278       .  A
O2665      C2672   1.274       .  A
O2667      C2673   1.273       .  A
C2668      C2809   1.472       .  S
C2669      C2826   1.477       .  S
C2670      C2814   1.483       .  S
C2671      C2805   1.477       .  S
C2672      C2801   1.474       .  S
C2673      C2858   1.480       .  S
C2674      C2679   1.411       .  A
C2674      C2797   1.488       .  S
C2675      C2676   1.404       .  A
C2675      H2680   1.081       .  S
C2676      C2677   1.399       .  A
C2676      C2842   1.476       .  S
C2677      H2681   1.082       .  S
C2678      C2679   1.410   1_545  A
C2679      H2682   1.084       .  S
C2683      C2684   1.405       .  A
C2683      C2688   1.407       .  A
C2684      C2685   1.406       .  A
C2685      C2686   1.400       .  A
C2685      C2789   1.482       .  S
C2686      C2687   1.407       .  A
C2686      H2690   1.082       .  S
C2687      C2688   1.400       .  A
C2687      C2793   1.489       .  S
C2688      H2691   1.078       .  S
Zn2692     O2696   1.966       .  S
Zn2692     O2697   2.067       .  S
Zn2692     O2701   2.047       .  S
Zn2692     O2708   2.013       .  S
Zn2693     O2696   1.919       .  S
Zn2693     O2698   1.991       .  S
Zn2693     O2700   1.996       .  S
Zn2693     O2704   1.990       .  S
Zn2694     O2696   1.962       .  S
Zn2694     O2699   2.010       .  S
Zn2694     O2962   2.057       .  S
Zn2694     O2965   2.010   1_554  S
Zn2695     O2696   1.978       .  S
Zn2695     O2963   2.046   1_554  S
Zn2695     O2706   2.043       .  S
Zn2695     O2707   2.034       .  S
O2697      C2709   1.279       .  A
O2698      C2710   1.270       .  A
O2699      C2711   1.275       .  A
O2700      C2709   1.270       .  A
O2701      C2711   1.278       .  A
O2702     Zn2954   2.066       .  S
O2702      C2970   1.277       .  A
O2703     Zn2955   2.050       .  S
O2703      C2712   1.278       .  A
O2704      C2713   1.273       .  A
O2705     Zn2954   2.014       .  S
O2705      C2712   1.272       .  A
O2706      C2713   1.274       .  A
O2707      C2714   1.277       .  A
O2708      C2714   1.273       .  A
C2709      C2818   1.482       .  S
C2710      C2781   1.474       .  S
C2710      O2962   1.276       .  A
C2711      C2777   1.485       .  S
C2712      C2798   1.481       .  S
C2713      C2790   1.476       .  S
C2715      C2716   1.406       .  A
C2715      C2720   1.404       .  A
C2715      C2806   1.487       .  S
C2716      C2717   1.401       .  A
C2716      H2721   1.083       .  S
C2717      C2978   1.409       .  A
C2717      C3038   1.490       .  S
C2718      C2977   1.408       .  A
C2718      C2979   1.406       .  A
C2718      H2722   1.082   1_556  S
C2719      C2978   1.408       .  A
C2719      C2720   1.408       .  A
C2719      C3034   1.487       .  S
C2720      H2723   1.084       .  S
C2724      C2729   1.399       .  A
C2724      C2834   1.476       .  S
C2725      C2726   1.399       .  A
C2725      H2730   1.075       .  S
C2726      C2987   1.408       .  A
C2726      C3042   1.487       .  S
C2727      C2986   1.407       .  A
C2727      H2731   1.083   1_556  S
C2728      C2729   1.390   1_545  A
C2729      H2732   1.085       .  S
C2733      C2734   1.412       .  A
C2733      C2738   1.409       .  A
C2733      C2838   1.494       .  S
C2734      C2735   1.403       .  A
C2734      H2739   1.083       .  S
C2735      C2736   1.400       .  A
C2735      C2785   1.480       .  S
C2736      C2737   1.402       .  A
C2736      H2740   1.085       .  S
C2737      C2738   1.413       .  A
C2737      C2765   1.492       .  S
C2738      H2741   1.082       .  S
Zn2742     O2746   1.905       .  S
Zn2742     O3007   1.976   1_554  S
Zn2742     O2751   1.980       .  S
Zn2742     O2758   1.983       .  S
Zn2743     O2748   2.052       .  S
Zn2743     O3010   2.088   1_554  S
Zn2743     O2754   2.030       .  S
Zn2744     O2749   2.053       .  S
Zn2744     O2752   2.014       .  S
Zn2744     O2755   2.055       .  S
Zn2745     O2746   1.952       .  S
Zn2745     O2757   2.020       .  S
O2747     Zn3002   1.969       .  S
O2747      C2759   1.268       .  A
O2748      C2760   1.281       .  A
O2750     Zn3003   2.116       .  S
O2751      C2761   1.268       .  A
O2752      C2760   1.275       .  A
O2753      C2762   1.273       .  A
O2755      C2762   1.279       .  A
O2756      C2763   1.272       .  A
O2757      C2764   1.270       .  A
O2758      C2764   1.270       .  A
C2759      C2854   1.473       .  S
C2760      C2766   1.480       .  S
C2761      C2794   1.473       .  S
C2762      C2822   1.484       .  S
C2763      C2773   1.480   1_554  S
C2764      C2769   1.469       .  S
C2765      C2766   1.344       .  D
C2765      H2767   1.087       .  S
C2766      H2768   1.085       .  S
C2769      C2770   1.341       .  D
C2769      H2771   1.086       .  S
C2773      C2774   1.343       .  D
C2773      H3035   1.087       .  S
C2774      C2979   1.487       .  S
C2774      H2776   1.087       .  S
H2775      C3033   1.086       .  S
C2777      C2778   1.351   1_554  D
C2777      H2779   1.085       .  S
C2778      C2977   1.492       .  S
C2778      H3040   1.087       .  S
H2780      C3038   1.087       .  S
C2781      C2782   1.346   1_554  D
C2781      H2783   1.086       .  S
C2782      C2986   1.495       .  S
C2782      H3044   1.087       .  S
H2784      C3042   1.087       .  S
C2785      C2786   1.344       .  D
C2785      H2787   1.086       .  S
C2786      H2788   1.088       .  S
C2789      C2790   1.344       .  D
C2789      H2791   1.088       .  S
C2790      H2792   1.086       .  S
C2793      C2794   1.342       .  D
C2793      H2795   1.087       .  S
C2794      H2796   1.086       .  S
C2797      C2798   1.344       .  D
C2797      H2799   1.085   1_565  S
C2798      H2800   1.087       .  S
C2801      C2802   1.345       .  D
C2801      H2803   1.086       .  S
C2805      C2806   1.345       .  D
C2805      H2807   1.086       .  S
C2806      H2808   1.084       .  S
C2809      C2810   1.342       .  D
C2809      H2811   1.081       .  S
C2813      C2814   1.346       .  D
C2813      H2815   1.088       .  S
C2814      H2816   1.086       .  S
C2817      C2818   1.344       .  D
C2817      H2819   1.082       .  S
C2818      H2820   1.085       .  S
C2821      C2822   1.345       .  D
C2821      H2823   1.087       .  S
C2825      C2826   1.343       .  D
C2825      H2827   1.087       .  S
C2826      H2828   1.087       .  S
C2829      C2830   1.337       .  D
C2829      H2831   1.087       .  S
C2830      H2832   1.088       .  S
C2833      C2834   1.341       .  D
C2833      H2835   1.086       .  S
C2834      H2836   1.087       .  S
C2837      C2838   1.346       .  D
C2837      H2839   1.085       .  S
C2838      H2840   1.086       .  S
C2841      C2842   1.344       .  D
C2841      H2843   1.086       .  S
C2842      H2844   1.088       .  S
C2845      C2846   1.346       .  D
C2845      H2847   1.085       .  S
C2846      H2848   1.087       .  S
C2849      C2850   1.340       .  D
C2849      H2851   1.085       .  S
C2850      H2852   1.087       .  S
C2853      C2854   1.342       .  D
C2853      H2855   1.084       .  S
C2854      H2856   1.088       .  S
C2857      C2858   1.349       .  D
C2857      H2859   1.087       .  S
C2858      H2860   1.084       .  S
C2861      C2862   1.410       .  A
C2861      C2866   1.404       .  A
C2861      C3113   1.493       .  S
C2862      C2863   1.403       .  A
C2862      H2867   1.083       .  S
C2863      C2864   1.406       .  A
C2863      C3110   1.486       .  S
C2864      C2865   1.407       .  A
C2864      H2868   1.084       .  S
C2865      C2866   1.411       .  A
C2865      C3117   1.495       .  S
C2866      H2869   1.075       .  S
Zn2870     O2874   1.954       .  S
Zn2870     O2875   2.020       .  S
Zn2870     O2879   1.996       .  S
Zn2870     O2886   2.015       .  S
Zn2871     O2874   1.955       .  S
Zn2871     O2876   2.010       .  S
Zn2871     O2878   2.014       .  S
Zn2871     O2882   2.002       .  S
Zn2872     O2874   1.993       .  S
Zn2872     O2877   2.074       .  S
Zn2872     O2880   2.091       .  S
Zn2872     O2883   2.082       .  S
Zn2873     O2874   1.957       .  S
Zn2873     O2881   1.991       .  S
Zn2873     O2884   2.010       .  S
Zn2873     O2885   2.013       .  S
O2875      C2887   1.275       .  A
O2876      C2888   1.272       .  A
O2877      C2889   1.281       .  A
O2878      C2887   1.271       .  A
O2879      C2889   1.272       .  A
O2880      C2888   1.282       .  A
O2881      C2890   1.271       .  A
O2882      C2891   1.273       .  A
O2883      C2890   1.282       .  A
O2884      C2891   1.271       .  A
O2885      C2892   1.269       .  A
O2886      C2892   1.272       .  A
C2888      C3097   1.490       .  S
C2889      C3109   1.475       .  S
C2890      C3101   1.477       .  S
C2891      C3090   1.471       .  S
C2892      C3093   1.477       .  S
C2893      C2894   1.400       .  A
C2893      C2898   1.406       .  A
C2894      C2895   1.401       .  A
C2895      C2896   1.405       .  A
C2895      C3089   1.483       .  S
C2896      C2897   1.403       .  A
C2896      H2900   1.081       .  S
C2897      C2898   1.400       .  A
C2897      C3085   1.478       .  S
C2898      H2901   1.081       .  S
C2902      C2903   1.406       .  A
C2902      C2907   1.412       .  A
C2902      C3077   1.494       .  S
C2903      C2904   1.409       .  A
C2903      H2908   1.075       .  S
C2904      C2905   1.402       .  A
C2904      C3106   1.494       .  S
C2905      C2906   1.406       .  A
C2905      H2909   1.084       .  S
C2906      C2907   1.401       .  A
C2906      C3073   1.490       .  S
C2907      H2910   1.083       .  S
Zn2911     O2915   1.946   1_655  S
Zn2911     O2916   2.003       .  S
Zn2911     O2920   1.967       .  S
Zn2912     O2917   1.987       .  S
Zn2912     O2919   2.012       .  S
Zn2912     O2923   2.011       .  S
Zn2913     O2915   2.002   1_655  S
Zn2913     O2918   2.076       .  S
Zn2914     O2922   2.011       .  S
Zn2914     O2925   2.021       .  S
O2916      C2928   1.271       .  A
O2917      C2929   1.270       .  A
O2918      C2930   1.279       .  A
O2920      C2930   1.267       .  A
O2921      C2929   1.277       .  A
O2922      C2931   1.273       .  A
O2923      C2932   1.271       .  A
O2924      C2931   1.280       .  A
O2925      C2932   1.275       .  A
O2927      C2933   1.274       .  A
C2928      C3069   1.475       .  S
C2929      C3086   1.470       .  S
C2930      C3074   1.472       .  S
C2931      C3065   1.484       .  S
C2932      C3061   1.477       .  S
C2933      C3118   1.482       .  S
C2934      C2939   1.407       .  A
C2934      C3057   1.485       .  S
C2935      C2936   1.411       .  A
C2935      H2940   1.078       .  S
C2936      C2937   1.403       .  A
C2936      C3102   1.493       .  S
C2937      H2941   1.080       .  S
C2938      C2939   1.406   1_545  A
C2939      H2942   1.084       .  S
C2943      C2944   1.397       .  A
C2943      C2948   1.405       .  A
C2944      C2945   1.396       .  A
C2945      C2946   1.410       .  A
C2945      C3049   1.488       .  S
C2946      C2947   1.408       .  A
C2946      H2950   1.082       .  S
C2947      C2948   1.406       .  A
C2947      C3053   1.489       .  S
C2948      H2951   1.079       .  S
Zn2952     O2956   1.965       .  S
Zn2952     O2957   2.072       .  S
Zn2952     O2961   2.035       .  S
Zn2952     O2968   2.010       .  S
Zn2953     O2956   1.912       .  S
Zn2953     O2958   1.970       .  S
Zn2953     O2960   1.983       .  S
Zn2953     O2964   1.961       .  S
Zn2954     O2956   1.961       .  S
Zn2954     O2959   2.017       .  S
Zn2955     O2956   1.988       .  S
Zn2955     O2966   2.060       .  S
Zn2955     O2967   2.058       .  S
O2957      C2969   1.278       .  A
O2958      C2970   1.265       .  A
O2959      C2971   1.277       .  A
O2960      C2969   1.268       .  A
O2961      C2971   1.277       .  A
O2963      C2972   1.278       .  A
O2964      C2973   1.266       .  A
O2965      C2972   1.272       .  A
O2966      C2973   1.278       .  A
O2967      C2974   1.279       .  A
O2968      C2974   1.273       .  A
C2969      C3078   1.479       .  S
C2970      C3041   1.473       .  S
C2971      C3037   1.483       .  S
C2972      C3058   1.478       .  S
C2973      C3050   1.464       .  S
C2975      C2976   1.410       .  A
C2975      C2980   1.407       .  A
C2975      C3066   1.495       .  S
C2976      C2977   1.405       .  A
C2976      H2981   1.083       .  S
C2978      H2982   1.082       .  S
C2979      C2980   1.410       .  A
C2980      H2983   1.084       .  S
C2984      C2989   1.402       .  A
C2984      C3094   1.481   1_545  S
C2985      C2986   1.406       .  A
C2985      H2990   1.072       .  S
C2987      H2991   1.084       .  S
C2988      C2989   1.402       .  A
C2989      H2992   1.083   1_545  S
C2993      C2994   1.405       .  A
C2993      C2998   1.413       .  A
C2993      C3098   1.496       .  S
C2994      C2995   1.407       .  A
C2994      H2999   1.084       .  S
C2995      C2996   1.400       .  A
C2995      C3045   1.481       .  S
C2996      C2997   1.401       .  A
C2996      H3000   1.085       .  S
C2997      C2998   1.416       .  A
C2997      C3025   1.497       .  S
C2998      H3001   1.080       .  S
Zn3002     O3006   1.935   1_655  S
Zn3002     O3011   1.987       .  S
Zn3002     O3018   2.004       .  S
Zn3003     O3008   2.084       .  S
Zn3003     O3014   2.055       .  S
Zn3004     O3009   2.050       .  S
Zn3004     O3012   1.988       .  S
Zn3004     O3015   2.025       .  S
Zn3005     O3006   1.970   1_655  S
Zn3005     O3017   2.033       .  S
O3007      C3019   1.267       .  A
O3008      C3020   1.284       .  A
O3011      C3021   1.269       .  A
O3012      C3020   1.272       .  A
O3013      C3022   1.273       .  A
O3015      C3022   1.276       .  A
O3016      C3023   1.277       .  A
O3017      C3024   1.273       .  A
O3018      C3024   1.272       .  A
C3019      C3114   1.475       .  S
C3020      C3026   1.480       .  S
C3021      C3054   1.481       .  S
C3022      C3082   1.480       .  S
C3023      C3033   1.481       .  S
C3024      C3029   1.478       .  S
C3025      C3026   1.343       .  D
C3025      H3027   1.087       .  S
C3026      H3028   1.084       .  S
C3029      C3030   1.345       .  D
C3029      H3031   1.086       .  S
C3033      C3034   1.347       .  D
C3034      H3036   1.087       .  S
C3037      C3038   1.348       .  D
C3037      H3039   1.085       .  S
C3041      C3042   1.342       .  D
C3041      H3043   1.087       .  S
C3045      C3046   1.343       .  D
C3045      H3047   1.087       .  S
C3046      H3048   1.087       .  S
C3049      C3050   1.339       .  D
C3049      H3051   1.088       .  S
C3050      H3052   1.084       .  S
C3053      C3054   1.352       .  D
C3053      H3055   1.087       .  S
C3054      H3056   1.084       .  S
C3057      C3058   1.343       .  D
C3057      H3059   1.086   1_565  S
C3058      H3060   1.087       .  S
C3061      C3062   1.346       .  D
C3061      H3063   1.083       .  S
C3065      C3066   1.347       .  D
C3065      H3067   1.086       .  S
C3066      H3068   1.085       .  S
C3069      C3070   1.346       .  D
C3069      H3071   1.081       .  S
C3073      C3074   1.342       .  D
C3073      H3075   1.086       .  S
C3074      H3076   1.087       .  S
C3077      C3078   1.345       .  D
C3077      H3079   1.085       .  S
C3078      H3080   1.086       .  S
C3081      C3082   1.343       .  D
C3081      H3083   1.087       .  S
C3085      C3086   1.341       .  D
C3085      H3087   1.086       .  S
C3086      H3088   1.088       .  S
C3089      C3090   1.345       .  D
C3089      H3091   1.087       .  S
C3090      H3092   1.084       .  S
C3093      C3094   1.342       .  D
C3093      H3095   1.085       .  S
C3094      H3096   1.087       .  S
C3097      C3098   1.346       .  D
C3097      H3099   1.086       .  S
C3098      H3100   1.082       .  S
C3101      C3102   1.343       .  D
C3101      H3103   1.086       .  S
C3102      H3104   1.087       .  S
C3105      C3106   1.349       .  D
C3105      H3107   1.084       .  S
C3106      H3108   1.087       .  S
C3109      C3110   1.345       .  D
C3109      H3111   1.081       .  S
C3110      H3112   1.087       .  S
C3113      C3114   1.342       .  D
C3113      H3115   1.083       .  S
C3114      H3116   1.086       .  S
C3117      C3118   1.349       .  D
C3117      H3119   1.087       .  S
C3118      H3120   1.084       .  S
