geometry optimzed in LAMMPS
_audit_creation_date              2020-11-30 
_audit_creation_method            'lammps2cif' 
_symmetry_space_group_name_H-M    'P1' 
_symmetry_Int_Tables_number       1 
_symmetry_cell_setting            triclinic 
loop_ 
_symmetry_equiv_pos_as_xyz 
  x,y,z 
_cell_length_a                    28.666724022405262 
_cell_length_b                    28.33225614231144 
_cell_length_c                    32.41511659203182 
_cell_angle_alpha                 89.90465403145198 
_cell_angle_beta                  93.27045195906368 
_cell_angle_gamma                 90.12172604302924 
loop_ 
_atom_site_label 
_atom_site_type_symbol 
_atom_site_fract_x 
_atom_site_fract_y 
_atom_site_fract_z 
_atom_site_charge 
N1          N  0.24916338  0.75745648  0.31832100    -0.07610
N2          N  0.22277451  0.79549361  0.31983882    -0.59730
N3          N  0.31363656  0.68897246  0.26220508    -0.07290
N4          N  0.33116294  0.68870702  0.22542964    -0.61860
N5          N  0.26985253  0.67524656  0.25952443    -0.06890
N6          N  0.25645148  0.66590130  0.22073374    -0.59710
N7          N  0.29368150  0.76941128  0.32231253    -0.06570
N8          N  0.29822410  0.81573229  0.32595359    -0.62210
C9          C  0.25360377  0.83175542  0.32426069     0.94560
C10         C  0.29511826  0.67445085  0.19973780     0.94340
N11         N  0.40286858  0.62570293  0.34985771    -0.07800
N12         N  0.42849828  0.58969773  0.33831745    -0.60310
N13         N  0.38651133  0.73817736  0.37708892    -0.05920
N14         N  0.42025094  0.77009961  0.37778550    -0.61560
N15         N  0.39290548  0.70949921  0.40894230    -0.07830
N16         N  0.43040341  0.72206995  0.43181345    -0.60580
N17         N  0.39642840  0.65568348  0.31894220    -0.05560
N18         N  0.41692311  0.64090694  0.28611187    -0.61650
Mn19       Mn  0.34800513  0.71447756  0.32014709     1.18440
C20         C  0.43655724  0.59976627  0.29830987     0.96640
C21         C  0.44701244  0.76009041  0.41238113     0.97310
N22         N  0.20889668  0.60423673  0.31243737    -0.07850
N23         N  0.19762431  0.57393509  0.28212001    -0.64160
N24         N  0.18969890  0.66706085  0.39936314    -0.06650
N25         N  0.15508437  0.67447279  0.42368504    -0.64830
N26         N  0.18317085  0.69147513  0.36511480    -0.07360
N27         N  0.14456133  0.71658803  0.36568708    -0.64420
N28         N  0.21379468  0.58121764  0.34776658    -0.06250
N29         N  0.20626206  0.53582345  0.34255505    -0.65110
Mn30       Mn  0.22648443  0.68200516  0.31256510     1.10660
C31         C  0.19576532  0.53144042  0.30187755     0.97870
C32         C  0.12750679  0.70610113  0.40259294     0.97940
N33         N  0.32375014  0.64993978  0.46281826    -0.07360
N34         N  0.33805234  0.65958685  0.50145710    -0.62740
N35         N  0.29496716  0.55578376  0.40884713    -0.06680
N36         N  0.28775284  0.51249437  0.42218516    -0.59470
N37         N  0.33988693  0.56459829  0.40828374    -0.07990
N38         N  0.36402524  0.52747429  0.42142381    -0.62300
N39         N  0.27818408  0.64277199  0.46032746    -0.06980
N40         N  0.26071300  0.64760594  0.49680752    -0.59490
Mn41       Mn  0.36586561  0.63709424  0.40792515     1.20190
Mn42       Mn  0.24323551  0.61209700  0.40468823     1.10090
Cl43       Cl  0.29591897  0.66199934  0.36167133    -0.87460
C44         C  0.29815072  0.65874393  0.52207760     0.94870
C45         C  0.33116069  0.49498017  0.42933170     0.94670
N46         N  0.31601575  0.65278649  0.96058866    -0.07610
N47         N  0.33204608  0.66217807  0.99877401    -0.59730
N48         N  0.28922136  0.55595536  0.91092727    -0.07290
N49         N  0.28500383  0.51236904  0.92495443    -0.61860
N50         N  0.33347752  0.56638606  0.90748286    -0.06890
N51         N  0.36006718  0.53020815  0.91850341    -0.59710
N52         N  0.27073230  0.64411845  0.95986925    -0.06570
N53         N  0.25539271  0.64705922  0.99734382    -0.62210
C54         C  0.29384283  0.65836884  0.02136449     0.94560
C55         C  0.32953521  0.49643911  0.92860074     0.94340
N56         N  0.19903353  0.59959360  0.81411368    -0.07800
N57         N  0.18876138  0.56766527  0.78483310    -0.60310
N58         N  0.17875129  0.66427620  0.89931432    -0.05920
N59         N  0.14241250  0.66965295  0.92234696    -0.61560
N60         N  0.17207318  0.68802133  0.86457814    -0.07830
N61         N  0.13196867  0.71080631  0.86368291    -0.60580
N62         N  0.20518327  0.57809578  0.85012100    -0.05560
N63         N  0.19941596  0.53238582  0.84639922    -0.61650
Mn64       Mn  0.23497361  0.61096761  0.90576690     1.18440
C65         C  0.18887016  0.52592046  0.80598224     0.96640
C66         C  0.11399510  0.69944393  0.89989627     0.97310
N67         N  0.39451192  0.62631708  0.84744949    -0.07850
N68         N  0.42291267  0.59190391  0.83713401    -0.64160
N69         N  0.37587081  0.73907151  0.87165274    -0.06650
N70         N  0.40888161  0.77193903  0.87253249    -0.64830
N71         N  0.38150022  0.71207172  0.90458667    -0.07360
N72         N  0.41710099  0.72686498  0.92857328    -0.64420
N73         N  0.38705396  0.65503423  0.81588270    -0.06250
N74         N  0.40980882  0.64126519  0.78402552    -0.65110
Mn75       Mn  0.35707592  0.63916908  0.90534049     1.10660
C76         C  0.43240734  0.60200004  0.79734057     0.97870
C77         C  0.43407058  0.76440864  0.90867643     0.97940
N78         N  0.23695112  0.75390476  0.81502680    -0.07360
N79         N  0.21098826  0.79209960  0.81891600    -0.62740
N80         N  0.30182650  0.68220291  0.75981385    -0.06680
N81         N  0.31984846  0.67754660  0.72348829    -0.59470
N82         N  0.25776036  0.66926553  0.75779911    -0.07990
N83         N  0.24449519  0.65659010  0.71963352    -0.62300
N84         N  0.28159781  0.76558529  0.81751734    -0.06980
N85         N  0.28669052  0.81153029  0.82266785    -0.59490
Mn86       Mn  0.21503251  0.67783582  0.81154927     1.20190
Mn87       Mn  0.33677284  0.71180096  0.81590631     1.10090
Cl88       Cl  0.28584368  0.66031175  0.85989435    -0.87460
C89         C  0.24251066  0.82785910  0.82394795     0.94870
C90         C  0.28391821  0.66118891  0.69880749     0.94670
N91         N  0.85670395  0.76669925  0.94581730    -0.07610
N92         N  0.88577598  0.75112508  0.91846261    -0.59730
N93         N  0.79560705  0.74764907  0.02962377    -0.07290
N94         N  0.79073983  0.71058141  0.05404601    -0.61860
N95         N  0.77138319  0.74128529  0.99441614    -0.06890
N96         N  0.74974340  0.70051406  0.99429538    -0.59710
N97         N  0.87992353  0.77456050  0.98140656    -0.06570
N98         N  0.92457450  0.76515024  0.97915355    -0.62210
C99         C  0.92789550  0.75042017  0.94005290     0.94560
C100        C  0.76123988  0.68166642  0.03158040     0.94340
N101        N  0.80536039  0.88405195  0.08532530    -0.07800
N102        N  0.79531782  0.89836534  0.12266928    -0.60310
N103        N  0.90136579  0.86071334  0.03833394    -0.05920
N104        N  0.94609794  0.85741654  0.05044589    -0.61560
N105        N  0.88923245  0.90517290  0.03406948    -0.07830
N106        N  0.92528143  0.93283571  0.04262288    -0.60580
N107        N  0.81605292  0.83882119  0.08632085    -0.05560
N108        N  0.81360579  0.82175805  0.12394110    -0.61650
Mn109      Mn  0.84832714  0.80454959  0.03471371     1.18440
C110        C  0.79987137  0.85882497  0.14631758     0.96640
C111        C  0.96078762  0.90284516  0.05243836     0.97310
N112        N  0.70445192  0.80453982  0.93643139    -0.07850
N113        N  0.66594824  0.77842898  0.93482434    -0.64160
N114        N  0.77614165  0.87128911  0.88347509    -0.06650
N115        N  0.78063518  0.88935875  0.84642781    -0.64830
N116        N  0.78903983  0.82691161  0.88445840    -0.07360
N117        N  0.80208233  0.81366946  0.84786147    -0.64420
N118        N  0.69319698  0.84957385  0.93551860    -0.06250
N119        N  0.64754128  0.85516980  0.93288409    -0.65110
Mn120      Mn  0.78013631  0.78352767  0.93940136     1.10660
C121        C  0.63077200  0.81071699  0.93277278     0.97870
C122        C  0.79729298  0.85319244  0.82447497     0.97940
N123        N  0.82773679  0.96651784  0.97032523    -0.07360
N124        N  0.86078143  0.99687774  0.96081801    -0.62740
N125        N  0.71680397  0.93997754  0.98895679    -0.06680
N126        N  0.67928530  0.96692305  0.98763193    -0.59470
N127        N  0.74278919  0.94806269  0.02296532    -0.07990
N128        N  0.72315874  0.98033289  0.04546036    -0.62300
N129        N  0.80007297  0.95801482  0.93743275    -0.06980
N130        N  0.81306265  0.98205938  0.90537187    -0.59490
Mn131      Mn  0.81643915  0.92709618  0.02882916     1.20190
Mn132      Mn  0.74571935  0.90506610  0.93608230     1.10090
Cl133      Cl  0.79738602  0.85493119  0.98500073    -0.87460
C134        C  0.85047243  0.00670114  0.92017270     0.94870
C135        C  0.68344703  0.99156676  0.02324866     0.94670
N136        N  0.86751493  0.76617252  0.44789359    -0.07610
N137        N  0.89866351  0.75244749  0.42160785    -0.59730
N138        N  0.80268233  0.74659529  0.53089115    -0.07290
N139        N  0.79597782  0.71165856  0.55702676    -0.61860
N140        N  0.78096279  0.73777670  0.49486449    -0.06890
N141        N  0.75899600  0.69687015  0.49580232    -0.59710
N142        N  0.88841558  0.77307574  0.48457556    -0.06570
N143        N  0.93330525  0.76471509  0.48422575    -0.62210
C144        C  0.93965208  0.75188422  0.44510140     0.94560
C145        C  0.76807736  0.68125152  0.53482440     0.94340
N146        N  0.81290997  0.88382369  0.58547146    -0.07800
N147        N  0.80172485  0.89898993  0.62213622    -0.60310
N148        N  0.90859663  0.85868708  0.53946996    -0.05920
N149        N  0.95366839  0.85431424  0.54951071    -0.61560
N150        N  0.89750753  0.90328343  0.53441904    -0.07830
N151        N  0.93465815  0.93012364  0.54072029    -0.60580
N152        N  0.82213689  0.83834703  0.58709190    -0.05560
N153        N  0.81755720  0.82186677  0.62465541    -0.61650
Mn154      Mn  0.85519992  0.80326222  0.53647832     1.18440
C155        C  0.80421509  0.85983184  0.64623528     0.96640
C156        C  0.96969524  0.89922361  0.54969091     0.97310
N157        N  0.71584189  0.80147364  0.43654324    -0.07850
N158        N  0.67859149  0.77380842  0.43515951    -0.64160
N159        N  0.78520285  0.87014927  0.38453236    -0.06650
N160        N  0.78832462  0.88872202  0.34747446    -0.64830
N161        N  0.79983757  0.82623351  0.38514381    -0.07360
N162        N  0.81262839  0.81387601  0.34813591    -0.64420
N163        N  0.70303849  0.84612315  0.43756244    -0.06250
N164        N  0.65720133  0.84979984  0.43706736    -0.65110
Mn165      Mn  0.79105865  0.78148118  0.43980024     1.10660
C166        C  0.64251095  0.80456196  0.43584706     0.97870
C167        C  0.80599078  0.85356772  0.32509655     0.97940
N168        N  0.83609903  0.96539707  0.47099507    -0.07360
N169        N  0.86848296  0.99657856  0.46177287    -0.62740
N170        N  0.72516177  0.93951075  0.49020041    -0.06680
N171        N  0.68797471  0.96710878  0.48963912    -0.59470
N172        N  0.75164263  0.94697490  0.52401996    -0.07990
N173        N  0.73252650  0.97861171  0.54743621    -0.62300
N174        N  0.80824407  0.95700941  0.43821545    -0.06980
N175        N  0.82065729  0.98179299  0.40635443    -0.59490
Mn176      Mn  0.82499705  0.92596003  0.52925532     1.20190
Mn177      Mn  0.75414127  0.90350706  0.43730807     1.10090
Cl178      Cl  0.80582134  0.85331017  0.48592124    -0.87460
C179        C  0.85776275  0.00687144  0.42131227     0.94870
C180        C  0.69252994  0.99048302  0.52607174     0.94670
N181        N  0.57201382  0.46105412  0.13427671    -0.07610
N182        N  0.53832000  0.48892106  0.14644667    -0.59730
N183        N  0.68236126  0.43908382  0.11007623    -0.07290
N184        N  0.71886981  0.46766175  0.10850494    -0.61860
N185        N  0.65388556  0.44535969  0.07737354    -0.06890
N186        N  0.67106896  0.47667503  0.05257951    -0.59710
N187        N  0.60192287  0.45256719  0.16563653    -0.06570
N188        N  0.58947028  0.47380201  0.19917520    -0.62210
C189        C  0.55006304  0.49672848  0.18723944     0.94560
C190        C  0.71172434  0.49050572  0.07188482     0.94340
N191        N  0.69880516  0.30106224  0.16208887    -0.07800
N192        N  0.73726298  0.27514649  0.16568020    -0.60310
N193        N  0.63038775  0.36603386  0.21760782    -0.05920
N194        N  0.62756541  0.38398881  0.25486045    -0.61560
N195        N  0.61688466  0.32172469  0.21694901    -0.07830
N196        N  0.60515270  0.30846259  0.25408162    -0.60580
N197        N  0.71002771  0.34620370  0.16116188    -0.05560
N198        N  0.75570814  0.35194487  0.16379399    -0.61650
Mn199      Mn  0.65736792  0.40144324  0.16380689     1.18440
C200        C  0.77233978  0.30754437  0.16633954     0.96640
C201        C  0.61137944  0.34795380  0.27736324     0.97310
N202        N  0.59070105  0.38323605  0.01691121    -0.07850
N203        N  0.60012895  0.39866407  0.97975821    -0.64160
N204        N  0.49750415  0.35608221  0.06557158    -0.06650
N205        N  0.45442420  0.35073370  0.04958964    -0.64830
N206        N  0.50769964  0.40108824  0.06977177    -0.07360
N207        N  0.47162215  0.42707266  0.05685152    -0.64420
N208        N  0.58174557  0.33770126  0.01559443    -0.06250
N209        N  0.58472097  0.32139321  0.97782652    -0.65110
Mn210      Mn  0.58075452  0.42392678  0.07434528     1.10660
C211        C  0.59651884  0.35959602  0.95561922     0.97870
C212        C  0.43820917  0.39526668  0.04525942     0.97940
N213        N  0.54677391  0.26078021  0.15611599    -0.07360
N214        N  0.51883213  0.23992416  0.18202393    -0.62740
N215        N  0.60486498  0.24616857  0.07044819    -0.06680
N216        N  0.60543773  0.20958973  0.04530367    -0.59470
N217        N  0.63014905  0.23736315  0.10477983    -0.07990
N218        N  0.64847549  0.19483675  0.10348373    -0.62300
N219        N  0.52301901  0.26997279  0.12107110    -0.06980
N220        N  0.47944093  0.25635956  0.12227016    -0.59490
Mn221      Mn  0.62344319  0.27889438  0.16104780     1.20190
Mn222      Mn  0.55206681  0.30196338  0.06778037     1.10090
Cl223      Cl  0.60360442  0.35142120  0.11661362    -0.87460
C224        C  0.47694844  0.23707204  0.15988717     0.94870
C225        C  0.63282881  0.17799935  0.06631722     0.94670
N226        N  0.49834181  0.35220202  0.56157300    -0.07610
N227        N  0.45509485  0.34598426  0.54627389    -0.59730
N228        N  0.59392522  0.38134791  0.51617563    -0.07290
N229        N  0.60502761  0.39646657  0.47932619    -0.61860
N230        N  0.58542064  0.33562562  0.51486712    -0.06890
N231        N  0.59045325  0.31895338  0.47749982    -0.59710
N232        N  0.50781183  0.39738715  0.56566447    -0.06570
N233        N  0.47117766  0.42275686  0.55344378    -0.62210
C234        C  0.43842719  0.39034668  0.54193364     0.94560
C235        C  0.60327804  0.35695065  0.45561743     0.94340
N236        N  0.67838928  0.44141142  0.61307574    -0.07800
N237        N  0.71422721  0.47096763  0.61455047    -0.60310
N238        N  0.56601862  0.46008043  0.63166124    -0.05920
N239        N  0.53105313  0.48765022  0.64166157    -0.61560
N240        N  0.59387792  0.45212934  0.66458476    -0.07830
N241        N  0.57890892  0.47350010  0.69720268    -0.60580
N242        N  0.65221045  0.44811332  0.57892427    -0.05560
N243        N  0.67029984  0.48140415  0.55622264    -0.61650
Mn244      Mn  0.57971974  0.42290401  0.57255960     1.18440
C245        C  0.70933682  0.49485448  0.57838375     0.96640
C246        C  0.54001080  0.49585112  0.68276176     0.97310
N247        N  0.60757998  0.24460880  0.57045915    -0.07850
N248        N  0.61261711  0.20902111  0.54482260    -0.64160
N249        N  0.54411690  0.25969199  0.65414730    -0.06650
N250        N  0.51432781  0.24342282  0.68077267    -0.64830
N251        N  0.52194886  0.26647383  0.61796909    -0.07360
N252        N  0.47767436  0.25500190  0.61903271    -0.64420
N253        N  0.63118657  0.23672143  0.60575460    -0.06250
N254        N  0.65292438  0.19582264  0.60467632    -0.65110
Mn255      Mn  0.55348648  0.29907282  0.56565316     1.10660
C256        C  0.64161082  0.17916268  0.56634489     0.97870
C257        C  0.47281600  0.24039861  0.65809693     0.97940
N258        N  0.62207822  0.36614395  0.71771874    -0.07360
N259        N  0.61823036  0.38337984  0.75510981    -0.62740
N260        N  0.69484326  0.30303128  0.66432292    -0.06680
N261        N  0.73369483  0.27781525  0.66638744    -0.59470
N262        N  0.70521267  0.34838915  0.66485887    -0.07990
N263        N  0.75081458  0.35486527  0.66754386    -0.62300
N264        N  0.61012275  0.32142188  0.71652390    -0.06980
N265        N  0.59842163  0.30721774  0.75337422    -0.59490
Mn266      Mn  0.65095312  0.40243163  0.66530239     1.20190
Mn267      Mn  0.62033157  0.27884819  0.66123322     1.10090
Cl268      Cl  0.60144514  0.35073102  0.61598308    -0.87460
C269        C  0.60335882  0.34635170  0.77720073     0.94870
C270        C  0.76835366  0.31068721  0.66796889     0.94670
N271        N  0.20134658  0.10285769  0.29401027    -0.07610
N272        N  0.21454967  0.07164003  0.32318648    -0.59730
N273        N  0.22282211  0.16488842  0.20839083    -0.07290
N274        N  0.26019792  0.16594228  0.18633213    -0.61860
N275        N  0.23074359  0.18899503  0.24270388    -0.06890
N276        N  0.27321075  0.20721327  0.24434667    -0.59710
N277        N  0.19362944  0.08074852  0.25850507    -0.06570
N278        N  0.20111268  0.03532948  0.26241881    -0.62210
C279        C  0.21438725  0.02964786  0.30246483     0.94560
C280        C  0.29141098  0.19252954  0.20911232     0.94340
N281        N  0.08655606  0.15752267  0.14607193    -0.07800
N282        N  0.07174277  0.16659708  0.10749639    -0.60310
N283        N  0.10937456  0.05993231  0.19614985    -0.05920
N284        N  0.11272752  0.01875689  0.17735301    -0.61560
N285        N  0.06522223  0.07141252  0.19852167    -0.07830
N286        N  0.03813164  0.03804742  0.18204144    -0.60580
N287        N  0.13145967  0.14708851  0.14766593    -0.05560
N288        N  0.14772119  0.14833553  0.11049316    -0.61650
Mn289      Mn  0.16499541  0.11353223  0.20230048     1.18440
C290        C  0.11027567  0.16047669  0.08569633     0.96640
C291        C  0.06793417  0.00506788  0.16930242     0.97310
N292        N  0.16629276  0.25834006  0.29057956    -0.07850
N293        N  0.19284977  0.29650190  0.28789152    -0.64160
N294        N  0.09951887  0.18888859  0.34603864    -0.06650
N295        N  0.08117362  0.18554385  0.38229739    -0.64830
N296        N  0.14306847  0.17461530  0.34844708    -0.07360
N297        N  0.15546960  0.16182668  0.38673563    -0.64420
N298        N  0.12183599  0.27058066  0.28769704    -0.06250
N299        N  0.11752057  0.31669369  0.28347369    -0.65110
Mn300      Mn  0.18668263  0.18150589  0.29524483     1.10660
C301        C  0.16196888  0.33286863  0.28360439     0.97870
C302        C  0.11621120  0.16821281  0.40746212     0.97940
N303        N  0.00575800  0.13346275  0.25827421    -0.07360
N304        N  0.97706404  0.09916425  0.26855024    -0.62740
N305        N  0.02713644  0.24524790  0.23372066    -0.06680
N306        N  0.99436616  0.27811550  0.23341418    -0.59470
N307        N  0.02077166  0.21845446  0.20076438    -0.07990
N308        N  0.98473409  0.23345533  0.17727550    -0.62300
N309        N  0.01434458  0.16158983  0.29010871    -0.06980
N310        N  0.99252042  0.14724150  0.32244387    -0.59490
Mn311      Mn  0.04393795  0.14511637  0.20064862     1.20190
Mn312      Mn  0.06557013  0.21783595  0.28961095     1.10090
Cl313      Cl  0.11542393  0.16480708  0.24672548    -0.87460
C314        C  0.96932107  0.10857677  0.30870360     0.94870
C315        C  0.96882211  0.27106689  0.19749315     0.94670
N316        N  0.19728378  0.09834711  0.79324081    -0.07610
N317        N  0.20646031  0.06645618  0.82279005    -0.59730
N318        N  0.21968279  0.16341675  0.70813336    -0.07290
N319        N  0.25514274  0.16911862  0.68426664    -0.61860
N320        N  0.22781540  0.18579690  0.74325889    -0.06890
N321        N  0.26880260  0.20728850  0.74399287    -0.59710
N322        N  0.19103434  0.07682416  0.75731267    -0.06570
N323        N  0.19539134  0.03092702  0.76141038    -0.62210
C324        C  0.20510726  0.02457658  0.80201773     0.94560
C325        C  0.28523444  0.19714188  0.70678983     0.94340
N326        N  0.08403128  0.15471599  0.64525381    -0.07800
N327        N  0.06965225  0.16647650  0.60715278    -0.60310
N328        N  0.10920163  0.05671123  0.69454678    -0.05920
N329        N  0.11482652  0.01568032  0.67627504    -0.61560
N330        N  0.06457623  0.06674341  0.69570211    -0.07830
N331        N  0.03929780  0.03257923  0.67820805    -0.60580
N332        N  0.12917225  0.14543865  0.64694966    -0.05560
N333        N  0.14605728  0.15035699  0.61023340    -0.61650
Mn334      Mn  0.16315150  0.11098252  0.70125418     1.18440
C335        C  0.10884784  0.16414416  0.58570056     0.96640
C336        C  0.07093228  0.00057793  0.66679201     0.97310
N337        N  0.16208399  0.25290091  0.79100339    -0.07850
N338        N  0.18889216  0.29084254  0.78919259    -0.64160
N339        N  0.09514246  0.18349017  0.84521790    -0.06650
N340        N  0.07717161  0.18294802  0.88172699    -0.64830
N341        N  0.13874028  0.16930699  0.84807411    -0.07360
N342        N  0.15154974  0.15935681  0.88694404    -0.64420
N343        N  0.11766032  0.26526773  0.78745607    -0.06250
N344        N  0.11356155  0.31147546  0.78361770    -0.65110
Mn345      Mn  0.18289875  0.17665874  0.79525014     1.10660
C346        C  0.15820155  0.32722177  0.78484239     0.97870
C347        C  0.11266330  0.16810553  0.90756132     0.97940
N348        N  0.00288535  0.12694388  0.75649600    -0.07360
N349        N  0.97368715  0.09285574  0.76630860    -0.62740
N350        N  0.02335842  0.23986205  0.73281192    -0.06680
N351        N  0.99034944  0.27249819  0.73289857    -0.59470
N352        N  0.01643974  0.21268837  0.70015370    -0.07990
N353        N  0.97941459  0.22681881  0.67753697    -0.62300
N354        N  0.01088495  0.15516523  0.78838822    -0.06980
N355        N  0.98825390  0.14101646  0.82031340    -0.59490
Mn356      Mn  0.04122227  0.13993133  0.69910020     1.20190
Mn357      Mn  0.06159070  0.21216941  0.78860618     1.10090
Cl358      Cl  0.11226038  0.16022667  0.74586367    -0.87460
C359        C  0.96512316  0.10244724  0.80628489     0.94870
C360        C  0.96365244  0.26447157  0.69779780     0.94670
C361        C  0.10971591  0.16620646  0.54003685    -0.07620
C362        C  0.14360310  0.13927589  0.52100293    -0.18750
C363        C  0.14517979  0.13710121  0.47800755     0.09580
C364        C  0.11322157  0.16387071  0.45285981    -0.07540
C365        C  0.07861981  0.18992295  0.47183901    -0.18780
C366        C  0.07669232  0.19165615  0.51485987     0.09610
S367        S  0.18724545  0.09760042  0.45748954    -0.33750
S368        S  0.03267922  0.22882910  0.53538754    -0.33750
H369        H  0.06258194  0.24747807  0.56725643     0.27620
H370        H  0.15631508  0.08045640  0.42566324     0.27610
H371        H  0.16831339  0.11833271  0.53970970     0.18210
H372        H  0.05373425  0.21065234  0.45314006     0.18210
C373        C  0.10987343  0.16023893  0.04007400    -0.07620
C374        C  0.08185235  0.19327036  0.01818866    -0.18750
C375        C  0.08255901  0.19728463  0.97521853     0.09580
C376        C  0.11076125  0.16634821  0.95304148    -0.07540
C377        C  0.13800928  0.13264775  0.97486973    -0.18780
C378        C  0.13753242  0.12878248  0.01784602     0.09610
S379        S  0.04941606  0.24501249  0.95135885    -0.33750
S380        S  0.17171258  0.08160544  0.04160132    -0.33750
H381        H  0.13933363  0.06971191  0.07078854     0.27620
H382        H  0.08560873  0.25965231  0.92665958     0.27610
H383        H  0.06074046  0.21761690  0.03488186     0.18210
H384        H  0.15921468  0.10837280  0.95819653     0.18210
C385        C  0.91410230  0.27820516  0.69280676    -0.07620
C386        C  0.90166066  0.32046873  0.67274905    -0.18750
C387        C  0.85460347  0.33143601  0.66287232     0.09580
C388        C  0.81891834  0.29980242  0.67405637    -0.07540
C389        C  0.83178020  0.25746564  0.69399379    -0.18780
C390        C  0.87860992  0.24657013  0.70375453     0.09610
S391        S  0.84295916  0.38483175  0.63382007    -0.33750
S392        S  0.89074464  0.19136014  0.73002614    -0.33750
H393        H  0.92805758  0.20868512  0.75563727     0.27620
H394        H  0.80779725  0.36455677  0.60738799     0.27610
H395        H  0.92880108  0.34422473  0.66335118     0.18210
H396        H  0.80508119  0.23299913  0.70304015     0.18210
C397        C  0.42588389  0.22711152  0.67257286    -0.07620
C398        C  0.38756796  0.23012456  0.64330129    -0.18750
C399        C  0.34170772  0.22186290  0.65382953     0.09580
C400        C  0.33282785  0.20946735  0.69471119    -0.07540
C401        C  0.37064223  0.20626995  0.72424642    -0.18780
C402        C  0.41692965  0.21406855  0.71355323     0.09610
S403        S  0.29593956  0.22994161  0.61388267    -0.33750
S404        S  0.46253125  0.20550297  0.75328385    -0.33750
H405        H  0.48888440  0.17604372  0.72861394     0.27620
H406        H  0.26381008  0.24989305  0.64003688     0.27610
H407        H  0.39290836  0.24008125  0.61164078     0.18210
H408        H  0.36426122  0.19600037  0.75566026     0.18210
C409        C  0.59960544  0.35807393  0.90994000    -0.07620
C410        C  0.60145243  0.31337385  0.89126831    -0.18750
C411        C  0.60070390  0.30800270  0.84837865     0.09580
C412        C  0.59894212  0.34839385  0.82263660    -0.07540
C413        C  0.59680250  0.39313728  0.84120502    -0.18780
C414        C  0.59739352  0.39849818  0.88417239     0.09610
S415        S  0.60339508  0.24856533  0.82911991    -0.33750
S416        S  0.59432106  0.45783985  0.90352732    -0.33750
H417        H  0.63704686  0.45404856  0.92692119     0.27620
H418        H  0.56044307  0.25247445  0.80607485     0.27610
H419        H  0.60310684  0.28184501  0.91026713     0.18210
H420        H  0.59520295  0.42457241  0.82208094     0.18210
C421        C  0.60687425  0.35070913  0.32270814    -0.07620
C422        C  0.63203652  0.38610805  0.34489256    -0.18750
C423        C  0.63254425  0.38871105  0.38806595     0.09580
C424        C  0.60654987  0.35571467  0.41009253    -0.07540
C425        C  0.58097893  0.32068901  0.38785656    -0.18780
C426        C  0.58021752  0.31825347  0.34473276     0.09610
S427        S  0.66896567  0.43339685  0.41298767    -0.33750
S428        S  0.54261963  0.27438507  0.31996698    -0.33750
H429        H  0.52489361  0.30505362  0.28869008     0.27620
H430        H  0.68614630  0.40373757  0.44521255     0.27610
H431        H  0.65289570  0.41121274  0.32864282     0.18210
H432        H  0.56001909  0.29564648  0.40409392     0.18210
C433        C  0.82248577  0.29749014  0.17461450    -0.07620
C434        C  0.85424331  0.31350863  0.14622712    -0.18750
C435        C  0.90256589  0.30751996  0.15369170     0.09580
C436        C  0.91974112  0.28605112  0.19078750    -0.07540
C437        C  0.88798773  0.27080344  0.21946426    -0.18780
C438        C  0.83973620  0.27635146  0.21185950     0.09610
S439        S  0.94045385  0.32752161  0.11467041    -0.33750
S440        S  0.80215073  0.25616664  0.25104516    -0.33750
H441        H  0.76991758  0.29339471  0.24628712     0.27620
H442        H  0.98001544  0.33517557  0.14150625     0.27610
H443        H  0.84126278  0.33056037  0.11791917     0.18210
H444        H  0.90083101  0.25323047  0.24757913     0.18210
C445        C  0.43235458  0.21780903  0.17386684    -0.07620
C446        C  0.42252695  0.22058033  0.21562153    -0.18750
C447        C  0.37762946  0.21045699  0.22851651     0.09580
C448        C  0.34084504  0.19950456  0.19878350    -0.07540
C449        C  0.35157151  0.19423390  0.15746196    -0.18780
C450        C  0.39671858  0.20190337  0.14490958     0.09610
S451        S  0.37050439  0.21043766  0.28333816    -0.33750
S452        S  0.40621239  0.18959742  0.09139807    -0.33750
H453        H  0.45140835  0.17123240  0.09947735     0.27620
H454        H  0.34525205  0.16774433  0.28267857     0.27610
H455        H  0.44966111  0.23148243  0.23825606     0.18210
H456        H  0.32451955  0.18401356  0.13451335     0.18210
C457        C  0.01430200  0.91535596  0.56978682    -0.07620
C458        C  0.02664253  0.96214202  0.56158599    -0.18750
C459        C  0.04906187  0.98973992  0.59224769     0.09580
C460        C  0.06009510  0.96967406  0.63142139    -0.07540
C461        C  0.05566071  0.92097445  0.63706127    -0.18780
C462        C  0.03407061  0.89311664  0.60578952     0.09610
S463        S  0.05874326  0.05167662  0.58246866    -0.33750
S464        S  0.02968814  0.83065225  0.61493414    -0.33750
H465        H  0.03391269  0.81854785  0.57320064     0.27620
H466        H  0.04638820  0.05092107  0.53983876     0.27610
H467        H  0.01332689  0.97870775  0.53318355     0.18210
H468        H  0.06662327  0.90514026  0.66648139     0.18210
C469        C  0.94196061  0.07942022  0.33608463    -0.07620
C470        C  0.89336005  0.07897297  0.32955315    -0.18750
C471        C  0.86503251  0.05895928  0.35867456     0.09580
C472        C  0.88570227  0.03661139  0.39436635    -0.07540
C473        C  0.93441863  0.03788424  0.40123072    -0.18780
C474        C  0.96268194  0.05918880  0.37261149     0.09610
S475        S  0.80274232  0.06597021  0.34967822    -0.33750
S476        S  0.02503517  0.05889051  0.38421265    -0.33750
H477        H  0.03774685  0.05881196  0.34294856     0.27620
H478        H  0.79383111  0.07108160  0.39169077     0.27610
H479        H  0.87725341  0.09657043  0.30266991     0.18210
H480        H  0.95071772  0.02086375  0.42830010     0.18210
C481        C  0.75613499  0.63321102  0.54850200    -0.07620
C482        C  0.76378598  0.59539407  0.52174981    -0.18750
C483        C  0.75258406  0.54901477  0.53237047     0.09580
C484        C  0.73272792  0.54000212  0.57036179    -0.07540
C485        C  0.72675899  0.57746810  0.59788495    -0.18780
C486        C  0.73769000  0.62399407  0.58717209     0.09610
S487        S  0.76419252  0.50279263  0.49618270    -0.33750
S488        S  0.72344602  0.67022187  0.62247725    -0.33750
H489        H  0.71006502  0.70350043  0.59182333     0.27620
H490        H  0.76878825  0.46629921  0.52559918     0.27610
H491        H  0.77872430  0.60201653  0.49229691     0.18210
H492        H  0.71038288  0.57092040  0.62669209     0.18210
C493        C  0.66847176  0.03490463  0.53472902    -0.07620
C494        C  0.66435095  0.06909594  0.50331622    -0.18750
C495        C  0.65612133  0.11655624  0.51251390     0.09580
C496        C  0.65059894  0.13001785  0.55392024    -0.07540
C497        C  0.65190309  0.09514199  0.58481108    -0.18780
C498        C  0.66033940  0.04792569  0.57562975     0.09610
S499        S  0.65741192  0.15847493  0.47069774    -0.33750
S500        S  0.66103386  0.00595722  0.61756644    -0.33750
H501        H  0.64951141  0.96639011  0.59284944     0.27620
H502        H  0.68161093  0.19351991  0.49404083     0.27610
H503        H  0.67154355  0.05960984  0.47192958     0.18210
H504        H  0.64621893  0.10464854  0.61650536     0.18210
C505        C  0.80239667  0.85540194  0.77923875    -0.07620
C506        C  0.78241346  0.89394168  0.75731531    -0.18750
C507        C  0.78117093  0.89609618  0.71416823     0.09580
C508        C  0.80118424  0.85922318  0.69178697    -0.07540
C509        C  0.82180476  0.82107269  0.71379739    -0.18780
C510        C  0.82339478  0.81910202  0.75691168     0.09610
S511        S  0.75171128  0.94591142  0.69002755    -0.33750
S512        S  0.85447288  0.77018207  0.78105014    -0.33750
H513        H  0.87865737  0.79844082  0.81090546     0.27620
H514        H  0.72655378  0.91840539  0.66023424     0.27610
H515        H  0.76604326  0.92212750  0.77374507     0.18210
H516        H  0.83827256  0.79290650  0.69740869     0.18210
C517        C  0.80800773  0.85545484  0.27957721    -0.07620
C518        C  0.79641163  0.81451729  0.25700962    -0.18750
C519        C  0.79095974  0.81524946  0.21388062     0.09580
C520        C  0.79884382  0.85762999  0.19205956    -0.07540
C521        C  0.81078231  0.89861685  0.21465029    -0.18780
C522        C  0.81592056  0.89791597  0.25793832     0.09610
S523        S  0.77130320  0.76130878  0.18900908    -0.33750
S524        S  0.83472908  0.95183276  0.28343082    -0.33750
H525        H  0.86208662  0.92949358  0.31513945     0.27620
H526        H  0.74136278  0.78391088  0.15929220     0.27610
H527        H  0.78925793  0.78199720  0.27315753     0.18210
H528        H  0.81790547  0.93111031  0.19847120     0.18210
C529        C  0.00441330  0.92032780  0.07375774    -0.07620
C530        C  0.01525217  0.96759790  0.06600207    -0.18750
C531        C  0.03858431  0.99516009  0.09613720     0.09580
C532        C  0.05378239  0.97449054  0.13418221    -0.07540
C533        C  0.04972941  0.92560993  0.13945942    -0.18780
C534        C  0.02570270  0.89801057  0.10914359     0.09610
S535        S  0.04317528  0.05788394  0.08742067    -0.33750
S536        S  0.02041107  0.83577876  0.11889953    -0.33750
H537        H  0.02541790  0.82310588  0.07741548     0.27620
H538        H  0.03131680  0.05728152  0.04470397     0.27610
H539        H  0.00023273  0.98448986  0.03835336     0.18210
H540        H  0.06275282  0.90941804  0.16814383     0.18210
C541        C  0.87936582  0.03475780  0.89269888    -0.07620
C542        C  0.92813551  0.03354035  0.89894202    -0.18750
C543        C  0.95695171  0.05287679  0.86974576     0.09580
C544        C  0.93678603  0.07386050  0.83334654    -0.07540
C545        C  0.88815409  0.07574731  0.82732100    -0.18780
C546        C  0.85930272  0.05736188  0.85685757     0.09610
S547        S  0.01932408  0.04937882  0.88050263    -0.33750
S548        S  0.79724747  0.06654357  0.84807411    -0.33750
H549        H  0.78861758  0.07216944  0.89009489     0.27620
H550        H  0.03123905  0.04847063  0.83901730     0.27610
H551        H  0.94396786  0.01604457  0.92597772     0.18210
H552        H  0.87256472  0.09392657  0.80052495     0.18210
C553        C  0.75024541  0.63196406  0.04197386    -0.07620
C554        C  0.77299468  0.61022534  0.07664778    -0.18750
C555        C  0.76520703  0.56240162  0.08589700     0.09580
C556        C  0.73396002  0.53553999  0.05988679    -0.07540
C557        C  0.71479481  0.55650512  0.02357708    -0.18780
C558        C  0.72035715  0.60413458  0.01547140     0.09610
S559        S  0.79637076  0.53814395  0.13077968    -0.33750
S560        S  0.68423238  0.62680336  0.97258938    -0.33750
H561        H  0.66803148  0.66433717  0.99605865     0.27620
H562        H  0.80545252  0.49481996  0.11165663     0.27610
H563        H  0.79706144  0.63043759  0.09663000     0.18210
H564        H  0.69151018  0.53660491  0.00259103     0.18210
C565        C  0.65885306  0.03594237  0.03048390    -0.07620
C566        C  0.64686840  0.04547810  0.07087170    -0.18750
C567        C  0.63488629  0.09101489  0.08261844     0.09580
C568        C  0.63734963  0.12845001  0.05391460    -0.07540
C569        C  0.64598282  0.11844811  0.01279867    -0.18780
C570        C  0.65632977  0.07254472  0.00064165     0.09610
S571        S  0.61625937  0.09877361  0.13438567    -0.33750
S572        S  0.67133752  0.06429592  0.94795646    -0.33750
H573        H  0.63762996  0.02870174  0.94045398     0.27620
H574        H  0.58253551  0.13330877  0.12342547     0.27610
H575        H  0.64811978  0.01745471  0.09372331     0.18210
H576        H  0.64680967  0.14688565  0.99043747     0.18210
C577        C  0.40021223  0.40778601  0.01504715    -0.07620
C578        C  0.40951126  0.40376102  0.97318842    -0.18750
C579        C  0.38256503  0.42796121  0.94282910     0.09580
C580        C  0.34520101  0.45631501  0.95447900    -0.07540
C581        C  0.33264321  0.45587673  0.99575828    -0.18780
C582        C  0.36014159  0.43217795  0.02628235     0.09610
S583        S  0.40038775  0.42538017  0.89038282    -0.33750
S584        S  0.34502967  0.43785990  0.07926443    -0.33750
H585        H  0.36823024  0.39682465  0.09367236     0.27620
H586        H  0.35653928  0.43753156  0.87168956     0.27610
H587        H  0.44035637  0.38498128  0.96446107     0.18210
H588        H  0.30425281  0.47799292  0.00501246     0.18210
C589        C  0.46061649  0.57346579  0.76923275    -0.07620
C590        C  0.46173911  0.58850674  0.72771038    -0.18750
C591        C  0.48641532  0.56388692  0.69861024     0.09580
C592        C  0.51048762  0.52244711  0.71062533    -0.07540
C593        C  0.50949542  0.50715425  0.75195525    -0.18780
C594        C  0.48550655  0.53224091  0.78131391     0.09610
S595        S  0.48782969  0.58870535  0.64746132    -0.33750
S596        S  0.48950464  0.51023345  0.83350439    -0.33750
H597        H  0.50459927  0.55379107  0.85033089     0.27620
H598        H  0.53599515  0.58130447  0.64422365     0.27610
H599        H  0.44386775  0.62046607  0.71762845     0.18210
H600        H  0.52834353  0.47559455  0.76179479     0.18210
C601        C  0.48272094  0.78156755  0.91809181    -0.07620
C602        C  0.51188644  0.75418028  0.94518302    -0.18750
C603        C  0.55970215  0.76334603  0.95125707     0.09580
C604        C  0.58002557  0.80011314  0.92910673    -0.07540
C605        C  0.55077423  0.82908496  0.90358785    -0.18780
C606        C  0.50251766  0.82067130  0.89826876     0.09610
S607        S  0.59213637  0.72798956  0.98903880    -0.33750
S608        S  0.46839619  0.86156998  0.86650910    -0.33750
H609        H  0.42959623  0.86036368  0.89120633     0.27620
H610        H  0.62081044  0.76509127  0.00435245     0.27610
H611        H  0.49764473  0.72464388  0.96163072     0.18210
H612        H  0.56566595  0.85852088  0.88743045     0.18210
C613        C  0.06570575  0.71147972  0.90922852    -0.07620
C614        C  0.05526351  0.75878784  0.91696369    -0.18750
C615        C  0.00973275  0.77279217  0.92445607     0.09580
C616        C  0.97338331  0.73892482  0.92367198    -0.07540
C617        C  0.98353055  0.69175157  0.91487603    -0.18780
C618        C  0.02922504  0.67770651  0.90743612     0.09610
S619        S  0.00039541  0.83432215  0.93574816    -0.33750
S620        S  0.03869908  0.61625592  0.89619656    -0.33750
H621        H  0.07438899  0.62357632  0.86887969     0.27620
H622        H  0.95360532  0.83578513  0.92019517     0.27610
H623        H  0.08290283  0.78498742  0.91752137     0.18210
H624        H  0.95603883  0.66545816  0.91513416     0.18210
C625        C  0.17072583  0.37831138  0.78355938    -0.07620
C626        C  0.13802131  0.41035302  0.76526819    -0.18750
C627        C  0.14448426  0.45948408  0.76843160     0.09580
C628        C  0.18526742  0.47737810  0.78920654    -0.07540
C629        C  0.21967118  0.44538579  0.80423063    -0.18780
C630        C  0.21263705  0.39654730  0.80246338     0.09610
S631        S  0.09807471  0.49708896  0.74802694    -0.33750
S632        S  0.25623769  0.36037786  0.82928825    -0.33750
H633        H  0.22376160  0.33744477  0.85345841     0.27620
H634        H  0.10086791  0.52991015  0.78052840     0.27610
H635        H  0.10594735  0.39711976  0.75017971     0.18210
H636        H  0.25087920  0.45869924  0.82080495     0.18210
C637        C  0.23022095  0.87885314  0.82769334    -0.07620
C638        C  0.18592697  0.89378195  0.81227809    -0.18750
C639        C  0.17500704  0.94182028  0.80836485     0.09580
C640        C  0.20910573  0.97641577  0.81963062    -0.07540
C641        C  0.25184616  0.96182275  0.83840662    -0.18780
C642        C  0.26249552  0.91362412  0.84317040     0.09610
S643        S  0.11757687  0.95682623  0.78650340    -0.33750
S644        S  0.31813289  0.89925742  0.86870792    -0.33750
H645        H  0.30079030  0.86059692  0.89049843     0.27620
H646        H  0.11571836  0.00158741  0.80506948     0.27610
H647        H  0.16021522  0.86798186  0.80130893     0.18210
H648        H  0.27814762  0.98799036  0.84727167     0.18210
C649        C  0.29584187  0.66191196  0.56741286    -0.07620
C650        C  0.32651054  0.63437822  0.59264080    -0.18750
C651        C  0.32157098  0.63117383  0.63534299     0.09580
C652        C  0.28608636  0.65704743  0.65358986    -0.07540
C653        C  0.25526504  0.68426328  0.62836583    -0.18780
C654        C  0.26000720  0.68731589  0.58569970     0.09610
S655        S  0.35973408  0.59132614  0.66444749    -0.33750
S656        S  0.22063534  0.72609248  0.55664150    -0.33750
H657        H  0.25245363  0.73905687  0.52714056     0.27620
H658        H  0.32893891  0.58141620  0.69559085     0.27610
H659        H  0.35318260  0.61360446  0.57878173     0.18210
H660        H  0.22848740  0.70490934  0.64222816     0.18210
C661        C  0.29647430  0.67079775  0.15415663    -0.07620
C662        C  0.26554551  0.63917214  0.13356165    -0.18750
C663        C  0.26499858  0.63322186  0.09074053     0.09580
C664        C  0.29507741  0.66068383  0.06710787    -0.07540
C665        C  0.32666850  0.69170660  0.08767470    -0.18780
C666        C  0.32739947  0.69749079  0.13064351     0.09610
S667        S  0.22711582  0.58776746  0.06888274    -0.33750
S668        S  0.36660905  0.74158882  0.15278619    -0.33750
H669        H  0.33266743  0.76211503  0.17679548     0.27620
H670        H  0.26055595  0.56995441  0.04283992     0.27610
H671        H  0.24230542  0.61779144  0.15113097     0.18210
H672        H  0.34990838  0.71291956  0.06996704     0.18210
C673        C  0.34199937  0.45649048  0.45840346    -0.07620
C674        C  0.36743720  0.41816068  0.44455256    -0.18750
C675        C  0.39568371  0.39150720  0.47231446     0.09580
C676        C  0.39799981  0.40341677  0.51476473    -0.07540
C677        C  0.36848227  0.43830477  0.52894405    -0.18780
C678        C  0.34017868  0.46473319  0.50126188     0.09610
S679        S  0.43314452  0.34801135  0.45085317    -0.33750
S680        S  0.30881118  0.51361044  0.52188593    -0.33750
H681        H  0.26754317  0.50449841  0.49768065     0.27620
H682        H  0.47469694  0.36804136  0.46825980     0.27610
H683        H  0.36929590  0.41222266  0.41164821     0.18210
H684        H  0.37050829  0.44778088  0.56140393     0.18210
C685        C  0.46257757  0.56982677  0.27040166    -0.07620
C686        C  0.50374012  0.54846553  0.28594014    -0.18750
C687        C  0.53355784  0.52568559  0.25977914     0.09580
C688        C  0.52134520  0.52263327  0.21657355    -0.07540
C689        C  0.47923609  0.54298876  0.20140947    -0.18780
C690        C  0.44972730  0.56610412  0.22767490     0.09610
S691        S  0.58688114  0.50289688  0.28432013    -0.33750
S692        S  0.39534339  0.58837008  0.20469846    -0.33750
H693        H  0.36912305  0.57836091  0.23906651     0.27620
H694        H  0.61543588  0.52958669  0.25909902     0.27610
H695        H  0.51394999  0.55151071  0.31854683     0.18210
H696        H  0.46874092  0.54042282  0.16885272     0.18210
C697        C  0.49676294  0.77308319  0.41762965    -0.07620
C698        C  0.51384116  0.79302307  0.45506545    -0.18750
C699        C  0.56163604  0.80229531  0.46247491     0.09580
C700        C  0.59298210  0.79123670  0.43185539    -0.07540
C701        C  0.57608474  0.77059852  0.39480468    -0.18780
C702        C  0.52853781  0.76101859  0.38748155     0.09610
S703        S  0.58062170  0.82726915  0.51178097    -0.33750
S704        S  0.51103965  0.73182464  0.33966279    -0.33750
H705        H  0.48127967  0.69933584  0.35788629     0.27620
H706        H  0.62549801  0.80715186  0.51379284     0.27610
H707        H  0.48987200  0.80097177  0.47879085     0.18210
H708        H  0.60011768  0.76213949  0.37125194     0.18210
C709        C  0.08043119  0.72049336  0.41433724    -0.07620
C710        C  0.04796430  0.73673506  0.38323657    -0.18750
C711        C  0.00179691  0.74750831  0.39178929     0.09580
C712        C  0.98685248  0.74008019  0.43199449    -0.07540
C713        C  0.01955444  0.72439660  0.46303266    -0.18780
C714        C  0.06601848  0.71587509  0.45504683     0.09610
S715        S  0.96482516  0.77277213  0.35079890    -0.33750
S716        S  0.10516212  0.70159641  0.49876499    -0.33750
H717        H  0.14141821  0.73074582  0.48589803     0.27620
H718        H  0.94727738  0.80850105  0.37570018     0.27610
H719        H  0.05855685  0.74136579  0.35192399     0.18210
H720        H  0.00918499  0.71972966  0.49441955     0.18210
C721        C  0.17353647  0.38449451  0.28070361    -0.07620
C722        C  0.13618651  0.41660657  0.27433445    -0.18750
C723        C  0.14308363  0.46567148  0.27574857     0.09580
C724        C  0.18842078  0.48408813  0.28328512    -0.07540
C725        C  0.22617464  0.45245643  0.28673889    -0.18780
C726        C  0.21941043  0.40328476  0.28574150     0.09610
S727        S  0.09209147  0.50286429  0.27224179    -0.33750
S728        S  0.27058621  0.36714203  0.29432948    -0.33750
H729        H  0.25449633  0.34694065  0.33060189     0.27620
H730        H  0.11457067  0.54197696  0.25546763     0.27610
H731        H  0.10072461  0.40356892  0.26983671     0.18210
H732        H  0.26106744  0.46615343  0.29372750     0.18210
C733        C  0.22152380  0.98132951  0.31932622    -0.07620
C734        C  0.18794324  0.94775194  0.30581199    -0.18750
C735        C  0.19717316  0.89936439  0.30709984     0.09580
C736        C  0.24052009  0.88282573  0.32457451    -0.07540
C737        C  0.27289597  0.91636260  0.34118363    -0.18780
C738        C  0.26422301  0.96527429  0.33811192     0.09610
S739        S  0.15395886  0.86177673  0.28126637    -0.33750
S740        S  0.30996565  0.00504897  0.35634400    -0.33750
H741        H  0.30323596  0.03828293  0.32435370     0.27620
H742        H  0.18624466  0.84082086  0.25578433     0.27610
H743        H  0.15536188  0.95958689  0.29059972     0.18210
H744        H  0.30611823  0.90454257  0.35502481     0.18210
loop_ 
_geom_bond_atom_site_label_1 
_geom_bond_atom_site_label_2 
_geom_bond_distance 
_geom_bond_site_symmetry_2 
_ccdc_geom_bond_type 
N1            N2   1.321       .  A
N1            N7   1.319       .  A
N1          Mn30   2.238       .  S
N2            C9   1.356       .  A
N3            N5   1.311       .  A
N3            N4   1.320       .  A
N3          Mn19   2.193       .  S
N4           C10   1.351       .  A
N5            N6   1.321       .  A
N5          Mn30   2.187       .  S
N6           C10   1.355       .  A
N7            N8   1.323       .  A
N7          Mn19   2.208       .  S
N8            C9   1.356       .  A
C9          C736   1.496       .  S
C10         C661   1.484       .  S
N11          N17   1.318       .  A
N11          N12   1.325       .  A
N11         Mn41   2.237       .  S
N12          C20   1.360       .  A
N13          N14   1.322       .  A
N13          N15   1.318       .  A
N13         Mn19   2.201       .  S
N14          C21   1.352       .  A
N15          N16   1.319       .  A
N15         Mn41   2.191       .  S
N16          C21   1.347       .  A
N17          N18   1.314       .  A
N17         Mn19   2.172       .  S
N18          C20   1.344       .  A
Mn19        Cl43   2.543       .  S
C20         C685   1.475       .  S
C21         C697   1.473       .  S
N22          N23   1.331       .  A
N22          N28   1.318       .  A
N22         Mn30   2.259       .  S
N23          C31   1.365       .  A
N24          N26   1.312       .  A
N24          N25   1.319       .  A
N24         Mn42   2.188       .  S
N25          C32   1.355       .  A
N26          N27   1.318       .  A
N26         Mn30   2.182       .  S
N27          C32   1.350       .  A
N28          N29   1.313       .  A
N28         Mn42   2.170       .  S
N29          C31   1.342       .  A
Mn30        Cl43   2.541       .  S
C31         C724   1.481       .  S
C32         C709   1.481       .  S
N33          N34   1.324       .  A
N33          N39   1.319       .  A
N33         Mn41   2.237       .  S
N34          C44   1.358       .  A
N35          N36   1.320       .  A
N35          N37   1.312       .  A
N35         Mn42   2.179       .  S
N36          C45   1.348       .  A
N37          N38   1.317       .  A
N37         Mn41   2.184       .  S
N38          C45   1.351       .  A
N39          N40   1.318       .  A
N39         Mn42   2.193       .  S
N40          C44   1.350       .  A
Mn41        Cl43   2.535       .  S
Mn42        Cl43   2.539       .  S
C44         C649   1.478       .  S
C45         C673   1.462       .  S
N46          N47   1.323       .  A
N46          N52   1.320       .  A
N46         Mn75   2.233       .  S
N47          C54   1.356   1_556  A
N48          N50   1.313       .  A
N48          N49   1.323       .  A
N48         Mn64   2.203       .  S
N49          C55   1.354       .  A
N50          N51   1.315       .  A
N50         Mn75   2.171       .  S
N51          C55   1.348       .  A
N52          N53   1.318       .  A
N52         Mn64   2.192       .  S
N53          C54   1.351   1_556  A
C54         C664   1.483       .  S
C55         C580   1.468       .  S
N56          N62   1.319       .  A
N56          N57   1.333       .  A
N56         Mn86   2.265       .  S
N57          C65   1.366       .  A
N58          N59   1.325       .  A
N58          N60   1.315       .  A
N58         Mn64   2.212       .  S
N59          C66   1.356       .  A
N60          N61   1.319       .  A
N60         Mn86   2.191       .  S
N61          C66   1.347       .  A
N62          N63   1.310       .  A
N62         Mn64   2.163       .  S
N63          C65   1.340       .  A
Mn64        Cl88   2.554       .  S
C65         C628   1.481       .  S
C66         C613   1.475       .  S
N67          N68   1.327       .  A
N67          N73   1.314       .  A
N67         Mn75   2.245       .  S
N68          C76   1.363       .  A
N69          N71   1.315       .  A
N69          N70   1.325       .  A
N69         Mn87   2.211       .  S
N70          C77   1.358       .  A
N71          N72   1.315       .  A
N71         Mn75   2.180       .  S
N72          C77   1.347       .  A
N73          N74   1.313       .  A
N73         Mn87   2.162       .  S
N74          C76   1.347       .  A
Mn75        Cl88   2.521       .  S
C76         C589   1.492       .  S
C77         C601   1.491       .  S
N78          N79   1.325       .  A
N78          N84   1.319       .  A
N78         Mn86   2.245       .  S
N79          C89   1.360       .  A
N80          N81   1.319       .  A
N80          N82   1.313       .  A
N80         Mn87   2.192       .  S
N81          C90   1.349       .  A
N82          N83   1.323       .  A
N82         Mn86   2.200       .  S
N83          C90   1.355       .  A
N84          N85   1.319       .  A
N84         Mn87   2.201       .  S
N85          C89   1.352       .  A
Mn86        Cl88   2.542       .  S
Mn87        Cl88   2.552       .  S
C89         C637   1.495       .  S
C90         C652   1.475       .  S
N91          N92   1.328       .  A
N91          N97   1.318       .  A
N91        Mn120   2.245       .  S
N92          C99   1.361       .  A
N93          N95   1.314   1_554  A
N93          N94   1.326       .  A
N93        Mn109   2.207       .  S
N94         C100   1.358       .  A
N95          N96   1.310       .  A
N95        Mn120   2.172       .  S
N96         C100   1.344   1_556  A
N97          N98   1.314       .  A
N97        Mn109   2.171   1_556  S
N98          C99   1.344       .  A
C99         C616   1.473       .  S
C100        C553   1.485       .  S
N101        N107   1.318       .  A
N101        N102   1.325       .  A
N101       Mn131   2.236       .  S
N102        C110   1.359       .  A
N103        N104   1.323       .  A
N103        N105   1.312       .  A
N103       Mn109   2.197       .  S
N104        C111   1.354       .  A
N105        N106   1.313       .  A
N105       Mn131   2.176       .  S
N106        C111   1.351       .  A
N107        N108   1.317       .  A
N107       Mn109   2.187       .  S
N108        C110   1.349       .  A
Mn109      Cl133   2.549   1_554  S
C110        C520   1.485       .  S
C111        C529   1.479   1_655  S
N112        N113   1.326       .  A
N112        N118   1.317       .  A
N112       Mn120   2.248       .  S
N113        C121   1.362       .  A
N114        N116   1.311       .  A
N114        N115   1.318       .  A
N114       Mn132   2.182       .  S
N115        C122   1.352       .  A
N116        N117   1.319       .  A
N116       Mn120   2.189       .  S
N117        C122   1.354       .  A
N118        N119   1.317       .  A
N118       Mn132   2.174       .  S
N119        C121   1.347       .  A
Mn120      Cl133   2.539       .  S
C121        C604   1.483       .  S
C122        C505   1.483       .  S
N123        N124   1.327       .  A
N123        N129   1.314       .  A
N123       Mn131   2.238   1_556  S
N124        C134   1.362   1_565  A
N125        N126   1.319       .  A
N125        N127   1.315   1_556  A
N125       Mn132   2.185       .  S
N126        C135   1.350   1_556  A
N127        N128   1.317       .  A
N127       Mn131   2.192       .  S
N128        C135   1.350       .  A
N129        N130   1.313       .  A
N129       Mn132   2.159       .  S
N130        C134   1.344   1_565  A
Mn131      Cl133   2.532   1_554  S
Mn132      Cl133   2.542       .  S
C134        C541   1.480       .  S
C135        C565   1.468   1_565  S
N136        N137   1.328       .  A
N136        N142   1.315       .  A
N136       Mn165   2.236       .  S
N137        C144   1.363       .  A
N138        N140   1.316       .  A
N138        N139   1.323       .  A
N138       Mn154   2.199       .  S
N139        C145   1.354       .  A
N140        N141   1.319       .  A
N140       Mn165   2.203       .  S
N141        C145   1.351       .  A
N142        N143   1.310       .  A
N142       Mn154   2.159       .  S
N143        C144   1.342       .  A
C144        C712   1.480       .  S
C145        C481   1.476       .  S
N146        N152   1.316       .  A
N146        N147   1.321       .  A
N146       Mn176   2.220       .  S
N147        C155   1.355       .  A
N148        N149   1.320       .  A
N148        N150   1.311       .  A
N148       Mn154   2.189       .  S
N149        C156   1.352       .  A
N150        N151   1.314       .  A
N150       Mn176   2.174       .  S
N151        C156   1.353       .  A
N152        N153   1.317       .  A
N152       Mn154   2.183       .  S
N153        C155   1.352       .  A
Mn154      Cl178   2.537       .  S
C155        C508   1.484       .  S
C156        C457   1.474   1_655  S
N157        N158   1.322       .  A
N157        N163   1.319       .  A
N157       Mn165   2.227       .  S
N158        C166   1.355       .  A
N159        N161   1.314       .  A
N159        N160   1.318       .  A
N159       Mn177   2.190       .  S
N160        C167   1.349       .  A
N161        N162   1.322       .  A
N161       Mn165   2.203       .  S
N162        C167   1.357       .  A
N163        N164   1.318       .  A
N163       Mn177   2.186       .  S
N164        C166   1.348       .  A
Mn165      Cl178   2.548       .  S
C166        C700   1.467       .  S
C167        C517   1.481       .  S
N168        N169   1.326       .  A
N168        N174   1.314       .  A
N168       Mn176   2.231       .  S
N169        C179   1.361   1_565  A
N170        N171   1.323       .  A
N170        N172   1.315       .  A
N170       Mn177   2.200       .  S
N171        C180   1.355       .  A
N172        N173   1.316       .  A
N172       Mn176   2.184       .  S
N173        C180   1.348       .  A
N174        N175   1.313       .  A
N174       Mn177   2.165       .  S
N175        C179   1.346   1_565  A
Mn176      Cl178   2.535       .  S
Mn177      Cl178   2.537       .  S
C179        C472   1.479       .  S
C180        C493   1.472   1_565  S
N181        N182   1.327       .  A
N181        N187   1.314       .  A
N181       Mn210   2.238       .  S
N182        C189   1.364       .  A
N183        N185   1.313       .  A
N183        N184   1.325       .  A
N183       Mn199   2.195       .  S
N184        C190   1.357       .  A
N185        N186   1.310       .  A
N185       Mn210   2.178       .  S
N186        C190   1.349       .  A
N187        N188   1.311       .  A
N187       Mn199   2.156       .  S
N188        C189   1.342       .  A
C189        C688   1.488       .  S
C190        C556   1.486       .  S
N191        N197   1.319       .  A
N191        N192   1.325       .  A
N191       Mn221   2.247       .  S
N192        C200   1.359       .  A
N193        N194   1.318       .  A
N193        N195   1.313       .  A
N193       Mn199   2.189       .  S
N194        C201   1.350       .  A
N195        N196   1.322       .  A
N195       Mn221   2.200       .  S
N196        C201   1.356       .  A
N197        N198   1.317       .  A
N197       Mn199   2.182       .  S
N198        C200   1.347       .  A
Mn199      Cl223   2.540       .  S
C200        C433   1.475       .  S
C201        C421   1.485       .  S
N202        N203   1.323   1_554  A
N202        N208   1.315       .  A
N202       Mn210   2.224       .  S
N203        C211   1.357       .  A
N204        N206   1.313       .  A
N204        N205   1.320       .  A
N204       Mn222   2.191       .  S
N205        C212   1.350       .  A
N206        N207   1.319       .  A
N206       Mn210   2.188       .  S
N207        C212   1.352       .  A
N208        N209   1.317   1_554  A
N208       Mn222   2.183       .  S
N209        C211   1.352       .  A
Mn210      Cl223   2.534       .  S
C211        C409   1.489       .  S
C212        C577   1.466       .  S
N213        N214   1.330       .  A
N213        N219   1.317       .  A
N213       Mn221   2.253       .  S
N214        C224   1.365       .  A
N215        N216   1.320       .  A
N215        N217   1.317       .  A
N215       Mn222   2.189       .  S
N216        C225   1.350       .  A
N217        N218   1.317       .  A
N217       Mn221   2.190       .  S
N218        C225   1.349       .  A
N219        N220   1.309       .  A
N219       Mn222   2.157       .  S
N220        C224   1.341       .  A
Mn221      Cl223   2.554       .  S
Mn222      Cl223   2.527       .  S
C224        C445   1.483       .  S
C225        C568   1.469       .  S
N226        N227   1.320       .  A
N226        N232   1.313       .  A
N226       Mn255   2.184       .  S
N227        C234   1.350       .  A
N228        N230   1.318       .  A
N228        N229   1.324       .  A
N228       Mn244   2.233       .  S
N229        C235   1.358       .  A
N230        N231   1.317       .  A
N230       Mn255   2.187       .  S
N231        C235   1.350       .  A
N232        N233   1.316       .  A
N232       Mn244   2.183       .  S
N233        C234   1.350       .  A
C234        C676   1.463       .  S
C235        C424   1.484       .  S
N236        N242   1.315       .  A
N236        N237   1.323       .  A
N236       Mn266   2.201       .  S
N237        C245   1.353       .  A
N238        N239   1.327       .  A
N238        N240   1.315       .  A
N238       Mn244   2.242       .  S
N239        C246   1.363       .  A
N240        N241   1.313       .  A
N240       Mn266   2.160       .  S
N241        C246   1.344       .  A
N242        N243   1.319       .  A
N242       Mn244   2.195       .  S
N243        C245   1.349       .  A
Mn244      Cl268   2.539       .  S
C245        C484   1.473       .  S
C246        C592   1.481       .  S
N247        N248   1.321       .  A
N247        N253   1.315       .  A
N247       Mn255   2.189       .  S
N248        C256   1.352       .  A
N249        N251   1.316       .  A
N249        N250   1.330       .  A
N249       Mn267   2.249       .  S
N250        C257   1.365       .  A
N251        N252   1.312       .  A
N251       Mn255   2.171       .  S
N252        C257   1.346       .  A
N253        N254   1.318       .  A
N253       Mn267   2.197       .  S
N254        C256   1.352       .  A
Mn255      Cl268   2.537       .  S
C256        C496   1.477       .  S
C257        C397   1.497       .  S
N258        N259   1.318       .  A
N258        N264   1.312       .  A
N258       Mn266   2.186       .  S
N259        C269   1.351       .  A
N260        N261   1.323       .  A
N260        N262   1.318       .  A
N260       Mn267   2.239       .  S
N261        C270   1.359       .  A
N262        N263   1.318       .  A
N262       Mn266   2.186       .  S
N263        C270   1.350       .  A
N264        N265   1.321       .  A
N264       Mn267   2.196       .  S
N265        C269   1.355       .  A
Mn266      Cl268   2.541       .  S
Mn267      Cl268   2.549       .  S
C269        C412   1.487       .  S
C270        C388   1.485       .  S
N271        N272   1.333       .  A
N271        N277   1.319       .  A
N271       Mn300   2.269       .  S
N272        C279   1.367       .  A
N273        N275   1.315       .  A
N273        N274   1.322       .  A
N273       Mn289   2.204       .  S
N274        C280   1.355       .  A
N275        N276   1.320       .  A
N275       Mn300   2.187       .  S
N276        C280   1.349       .  A
N277        N278   1.310       .  A
N277       Mn289   2.164       .  S
N278        C279   1.341       .  A
C279        C733   1.483   1_545  S
C280        C448   1.487       .  S
N281        N287   1.319       .  A
N281        N282   1.322       .  A
N281       Mn311   2.234       .  S
N282        C290   1.356       .  A
N283        N284   1.323       .  A
N283        N285   1.314       .  A
N283       Mn289   2.201       .  S
N284        C291   1.352       .  A
N285        N286   1.317       .  A
N285       Mn311   2.179       .  S
N286        C291   1.348       .  A
N287        N288   1.317       .  A
N287       Mn289   2.184       .  S
N288        C290   1.349       .  A
Mn289      Cl313   2.540       .  S
C290        C373   1.478       .  S
C291        C532   1.470   1_545  S
N292        N293   1.327       .  A
N292        N298   1.320       .  A
N292       Mn300   2.258       .  S
N293        C301   1.362       .  A
N294        N296   1.311       .  A
N294        N295   1.318       .  A
N294       Mn312   2.182       .  S
N295        C302   1.350       .  A
N296        N297   1.322       .  A
N296       Mn300   2.195       .  S
N297        C302   1.356       .  A
N298        N299   1.319       .  A
N298       Mn312   2.200       .  S
N299        C301   1.353       .  A
Mn300      Cl313   2.550       .  S
C301        C721   1.503       .  S
C302        C364   1.484       .  S
N303        N304   1.326   1_455  A
N303        N309   1.317       .  A
N303       Mn311   2.242       .  S
N304        C314   1.360       .  A
N305        N306   1.324   1_455  A
N305        N307   1.316       .  A
N305       Mn312   2.207       .  S
N306        C315   1.355       .  A
N307        N308   1.319   1_455  A
N307       Mn311   2.183       .  S
N308        C315   1.346       .  A
N309        N310   1.314   1_455  A
N309       Mn312   2.165       .  S
N310        C314   1.344       .  A
Mn311      Cl313   2.528       .  S
Mn312      Cl313   2.545       .  S
C314        C469   1.470       .  S
C315        C436   1.475       .  S
N316        N317   1.331       .  A
N316        N322   1.318       .  A
N316       Mn345   2.259       .  S
N317        C324   1.365       .  A
N318        N320   1.313       .  A
N318        N319   1.322       .  A
N318       Mn334   2.198       .  S
N319        C325   1.355       .  A
N320        N321   1.321       .  A
N320       Mn345   2.193       .  S
N321        C325   1.351       .  A
N322        N323   1.312       .  A
N322       Mn334   2.170       .  S
N323        C324   1.342       .  A
C324        C640   1.480   1_545  S
C325        C400   1.482       .  S
N326        N332   1.319       .  A
N326        N327   1.322       .  A
N326       Mn356   2.229       .  S
N327        C335   1.356       .  A
N328        N329   1.320       .  A
N328        N330   1.314       .  A
N328       Mn334   2.181       .  S
N329        C336   1.347       .  A
N330        N331   1.317       .  A
N330       Mn356   2.185       .  S
N331        C336   1.351       .  A
N332        N333   1.317       .  A
N332       Mn334   2.192       .  S
N333        C335   1.352       .  A
Mn334      Cl358   2.534       .  S
C335        C361   1.483       .  S
C336        C460   1.463   1_545  S
N337        N338   1.323       .  A
N337        N343   1.320       .  A
N337       Mn345   2.244       .  S
N338        C346   1.358       .  A
N339        N341   1.312       .  A
N339        N340   1.317       .  A
N339       Mn357   2.179       .  S
N340        C347   1.348       .  A
N341        N342   1.322       .  A
N341       Mn345   2.196       .  S
N342        C347   1.356       .  A
N343        N344   1.320       .  A
N343       Mn357   2.201       .  S
N344        C346   1.353       .  A
Mn345      Cl358   2.551       .  S
C346        C625   1.492       .  S
C347        C376   1.479       .  S
N348        N349   1.327   1_455  A
N348        N354   1.317       .  A
N348       Mn356   2.244       .  S
N349        C359   1.361       .  A
N350        N351   1.325   1_455  A
N350        N352   1.316       .  A
N350       Mn357   2.205       .  S
N351        C360   1.354       .  A
N352        N353   1.318   1_455  A
N352       Mn356   2.183       .  S
N353        C360   1.346       .  A
N354        N355   1.314   1_455  A
N354       Mn357   2.170       .  S
N355        C359   1.343       .  A
Mn356      Cl358   2.534       .  S
Mn357      Cl358   2.538       .  S
C359        C544   1.470       .  S
C360        C385   1.473       .  S
C361        C362   1.407       .  A
C361        C366   1.412       .  A
C362        C363   1.398       .  A
C362        H371   1.083       .  S
C363        C364   1.412       .  A
C363        S367   1.802       .  S
C364        C365   1.408       .  A
C365        C366   1.400       .  A
C365        H372   1.083       .  S
C366        S368   1.802       .  S
S367        H370   1.408       .  S
S368        H369   1.407       .  S
C373        C374   1.400       .  A
C373        C378   1.419       .  A
C374        C375   1.399   1_554  A
C374        H383   1.084       .  S
C375        C376   1.418       .  A
C375        S379   1.802       .  S
C376        C377   1.400       .  A
C377        C378   1.398   1_556  A
C377        H384   1.084       .  S
C378        S380   1.804       .  S
S379        H382   1.408       .  S
S380        H381   1.403       .  S
C385        C386   1.399       .  A
C385        C390   1.414       .  A
C386        C387   1.404       .  A
C386        H395   1.084       .  S
C387        C388   1.421       .  A
C387        S391   1.802       .  S
C388        C389   1.402       .  A
C389        C390   1.397       .  A
C389        H396   1.084       .  S
C390        S392   1.805       .  S
S391        H394   1.407       .  S
S392        H393   1.404       .  S
C397        C398   1.413       .  A
C397        C402   1.416       .  A
C398        C399   1.396       .  A
C398        H407   1.083       .  S
C399        C400   1.407       .  A
C399        S403   1.805       .  S
C400        C401   1.408       .  A
C401        C402   1.407       .  A
C401        H408   1.084       .  S
C402        S404   1.799       .  S
S403        H406   1.407       .  S
S404        H405   1.407       .  S
C409        C410   1.407       .  A
C409        C414   1.416       .  A
C410        C411   1.398       .  A
C410        H419   1.084       .  S
C411        C412   1.414       .  A
C411        S415   1.800       .  S
C412        C413   1.407       .  A
C413        C414   1.400       .  A
C413        H420   1.084       .  S
C414        S416   1.800       .  S
S415        H418   1.408       .  S
S416        H417   1.407       .  S
C421        C422   1.408       .  A
C421        C426   1.413       .  A
C422        C423   1.401       .  A
C422        H431   1.083       .  S
C423        C424   1.412       .  A
C423        S427   1.802       .  S
C424        C425   1.407       .  A
C425        C426   1.399       .  A
C425        H432   1.084       .  S
C426        S428   1.803       .  S
S427        H430   1.407       .  S
S428        H429   1.408       .  S
C433        C434   1.405       .  A
C433        C438   1.411       .  A
C434        C435   1.403       .  A
C434        H443   1.084       .  S
C435        C436   1.411       .  A
C435        S439   1.803       .  S
C436        C437   1.405       .  A
C437        C438   1.400       .  A
C437        H444   1.084       .  S
C438        S440   1.803       .  S
S439        H442   1.406       .  S
S440        H441   1.406       .  S
C445        C446   1.401       .  A
C445        C450   1.420       .  A
C446        C447   1.405       .  A
C446        H455   1.083       .  S
C447        C448   1.422       .  A
C447        S451   1.800       .  S
C448        C449   1.400       .  A
C449        C450   1.395       .  A
C449        H456   1.083       .  S
C450        S452   1.806       .  S
S451        H454   1.408       .  S
S452        H453   1.408       .  S
C457        C458   1.400       .  A
C457        C462   1.416       .  A
C458        C459   1.393       .  A
C458        H467   1.083       .  S
C459        C460   1.410       .  A
C459        S463   1.806   1_565  S
C460        C461   1.398       .  A
C461        C462   1.401       .  A
C461        H468   1.084       .  S
C462        S464   1.799       .  S
S463        H466   1.407       .  S
S464        H465   1.408       .  S
C469        C470   1.397       .  A
C469        C474   1.415       .  A
C470        C471   1.398       .  A
C470        H479   1.084       .  S
C471        C472   1.418       .  A
C471        S475   1.804       .  S
C472        C473   1.402       .  A
C473        C474   1.401       .  A
C473        H480   1.083       .  S
C474        S476   1.806   1_655  S
S475        H478   1.408       .  S
S476        H477   1.406       .  S
C481        C482   1.405       .  A
C481        C486   1.412       .  A
C482        C483   1.399       .  A
C482        H491   1.084       .  S
C483        C484   1.409       .  A
C483        S487   1.804       .  S
C484        C485   1.405       .  A
C485        C486   1.402       .  A
C485        H492   1.084       .  S
C486        S488   1.803       .  S
S487        H490   1.407       .  S
S488        H489   1.407       .  S
C493        C494   1.405       .  A
C493        C498   1.409       .  A
C494        C495   1.401       .  A
C494        H503   1.084       .  S
C495        C496   1.414       .  A
C495        S499   1.803       .  S
C496        C497   1.405       .  A
C497        C498   1.396       .  A
C497        H504   1.084       .  S
C498        S500   1.804       .  S
S499        H502   1.407       .  S
S500        H501   1.407   1_545  S
C505        C506   1.407       .  A
C505        C510   1.414       .  A
C506        C507   1.398       .  A
C506        H515   1.083       .  S
C507        C508   1.414       .  A
C507        S511   1.801       .  S
C508        C509   1.407       .  A
C509        C510   1.397       .  A
C509        H516   1.083       .  S
C510        S512   1.803       .  S
S511        H514   1.407       .  S
S512        H513   1.408       .  S
C517        C518   1.402       .  A
C517        C522   1.416       .  A
C518        C519   1.398       .  A
C518        H527   1.084       .  S
C519        C520   1.417       .  A
C519        S523   1.803       .  S
C520        C521   1.405       .  A
C521        C522   1.403       .  A
C521        H528   1.084       .  S
C522        S524   1.805       .  S
S523        H526   1.407       .  S
S524        H525   1.407       .  S
C529        C530   1.400       .  A
C529        C534   1.417       .  A
C530        C531   1.392       .  A
C530        H539   1.083       .  S
C531        C532   1.411       .  A
C531        S535   1.805   1_565  S
C532        C533   1.401       .  A
C533        C534   1.405       .  A
C533        H540   1.084       .  S
C534        S536   1.798       .  S
S535        H538   1.407       .  S
S536        H537   1.408       .  S
C541        C542   1.402       .  A
C541        C546   1.419       .  A
C542        C543   1.401       .  A
C542        H551   1.083       .  S
C543        C544   1.415       .  A
C543        S547   1.805   1_655  S
C544        C545   1.398       .  A
C545        C546   1.400       .  A
C545        H552   1.084       .  S
C546        S548   1.805       .  S
S547        H550   1.407       .  S
S548        H549   1.408       .  S
C553        C554   1.408       .  A
C553        C558   1.417       .  A
C554        C555   1.407       .  A
C554        H563   1.083       .  S
C555        C556   1.416       .  A
C555        S559   1.799       .  S
C556        C557   1.402       .  A
C557        C558   1.385       .  A
C557        H564   1.084       .  S
C558        S560   1.804   1_554  S
S559        H562   1.407       .  S
S560        H561   1.404       .  S
C565        C566   1.399       .  A
C565        C570   1.416       .  A
C566        C567   1.395       .  A
C566        H575   1.084       .  S
C567        C568   1.414       .  A
C567        S571   1.804       .  S
C568        C569   1.399       .  A
C569        C570   1.397       .  A
C569        H576   1.084   1_554  S
C570        S572   1.801   1_554  S
S571        H574   1.408       .  S
S572        H573   1.407       .  S
C577        C578   1.403   1_554  A
C577        C582   1.408       .  A
C578        C579   1.396       .  A
C578        H587   1.084       .  S
C579        C580   1.409       .  A
C579        S583   1.805       .  S
C580        C581   1.405       .  A
C581        C582   1.401   1_556  A
C581        H588   1.084   1_556  S
C582        S584   1.803       .  S
S583        H586   1.407       .  S
S584        H585   1.406       .  S
C589        C590   1.413       .  A
C589        C594   1.413       .  A
C590        C591   1.399       .  A
C590        H599   1.082       .  S
C591        C592   1.406       .  A
C591        S595   1.802       .  S
C592        C593   1.409       .  A
C593        C594   1.401       .  A
C593        H600   1.084       .  S
C594        S596   1.800       .  S
S595        H598   1.407       .  S
S596        H597   1.407       .  S
C601        C602   1.410       .  A
C601        C606   1.414       .  A
C602        C603   1.397       .  A
C602        H611   1.083       .  S
C603        C604   1.408       .  A
C603        S607   1.799       .  S
C604        C605   1.408       .  A
C605        C606   1.404       .  A
C605        H612   1.084       .  S
C606        S608   1.801       .  S
S607        H610   1.407   1_556  S
S608        H609   1.407       .  S
C613        C614   1.400       .  A
C613        C618   1.415       .  A
C614        C615   1.400       .  A
C614        H623   1.084       .  S
C615        C616   1.414   1_455  A
C615        S619   1.806       .  S
C616        C617   1.402       .  A
C617        C618   1.404   1_655  A
C617        H624   1.084       .  S
C618        S620   1.804       .  S
S619        H622   1.406   1_455  S
S620        H621   1.406       .  S
C625        C626   1.412       .  A
C625        C630   1.414       .  A
C626        C627   1.407       .  A
C626        H635   1.083       .  S
C627        C628   1.409       .  A
C627        S631   1.802       .  S
C628        C629   1.407       .  A
C629        C630   1.399       .  A
C629        H636   1.084       .  S
C630        S632   1.802       .  S
S631        H634   1.405       .  S
S632        H633   1.408       .  S
C637        C638   1.404       .  A
C637        C642   1.422       .  A
C638        C639   1.401       .  A
C638        H647   1.083       .  S
C639        C640   1.416       .  A
C639        S643   1.806       .  S
C640        C641   1.400       .  A
C641        C642   1.406       .  A
C641        H648   1.084       .  S
C642        S644   1.802       .  S
S643        H646   1.407   1_565  S
S644        H645   1.407       .  S
C649        C650   1.403       .  A
C649        C654   1.414       .  A
C650        C651   1.402       .  A
C650        H659   1.084       .  S
C651        C652   1.413       .  A
C651        S655   1.802       .  S
C652        C653   1.401       .  A
C653        C654   1.400       .  A
C653        H660   1.084       .  S
C654        S656   1.802       .  S
S655        H658   1.406       .  S
S656        H657   1.407       .  S
C661        C662   1.402       .  A
C661        C666   1.418       .  A
C662        C663   1.398       .  A
C662        H671   1.084       .  S
C663        C664   1.416       .  A
C663        S667   1.803       .  S
C664        C665   1.402       .  A
C665        C666   1.402       .  A
C665        H672   1.084       .  S
C666        S668   1.801       .  S
S667        H670   1.408       .  S
S668        H669   1.407       .  S
C673        C674   1.398       .  A
C673        C678   1.413       .  A
C674        C675   1.397       .  A
C674        H683   1.084       .  S
C675        C676   1.415       .  A
C675        S679   1.803       .  S
C676        C677   1.398       .  A
C677        C678   1.393       .  A
C677        H684   1.085       .  S
C678        S680   1.803       .  S
S679        H682   1.407       .  S
S680        H681   1.405       .  S
C685        C686   1.395       .  A
C685        C690   1.417       .  A
C686        C687   1.398       .  A
C686        H695   1.084       .  S
C687        C688   1.427       .  A
C687        S691   1.803       .  S
C688        C689   1.402       .  A
C689        C690   1.398       .  A
C689        H696   1.083       .  S
C690        S692   1.804       .  S
S691        H694   1.408       .  S
S692        H693   1.407       .  S
C697        C698   1.402       .  A
C697        C702   1.416       .  A
C698        C699   1.402       .  A
C698        H707   1.084       .  S
C699        C700   1.412       .  A
C699        S703   1.804       .  S
C700        C701   1.398       .  A
C701        C702   1.396       .  A
C701        H708   1.085       .  S
C702        S704   1.803       .  S
S703        H706   1.406       .  S
S704        H705   1.406       .  S
C709        C710   1.410       .  A
C709        C714   1.411       .  A
C710        C711   1.402       .  A
C710        H719   1.084       .  S
C711        C712   1.410   1_455  A
C711        S715   1.800   1_455  S
C712        C713   1.408   1_655  A
C713        C714   1.393       .  A
C713        H720   1.084       .  S
C714        S716   1.803       .  S
S715        H718   1.407       .  S
S716        H717   1.407       .  S
C721        C722   1.412       .  A
C721        C726   1.419       .  A
C722        C723   1.404       .  A
C722        H731   1.083       .  S
C723        C724   1.408       .  A
C723        S727   1.802       .  S
C724        C725   1.406       .  A
C725        C726   1.406       .  A
C725        H732   1.084       .  S
C726        S728   1.799       .  S
S727        H730   1.405       .  S
S728        H729   1.408       .  S
C733        C734   1.405       .  A
C733        C738   1.412       .  A
C734        C735   1.397       .  A
C734        H743   1.085       .  S
C735        C736   1.416       .  A
C735        S739   1.802       .  S
C736        C737   1.412       .  A
C737        C738   1.411       .  A
C737        H744   1.083       .  S
C738        S740   1.802   1_565  S
S739        H742   1.408       .  S
S740        H741   1.405       .  S
