geometry optimzed in LAMMPS
_audit_creation_date              2020-11-30 
_audit_creation_method            'lammps2cif' 
_symmetry_space_group_name_H-M    'P1' 
_symmetry_Int_Tables_number       1 
_symmetry_cell_setting            triclinic 
loop_ 
_symmetry_equiv_pos_as_xyz 
  x,y,z 
_cell_length_a                    45.42974916 
_cell_length_b                    45.49791754002503 
_cell_length_c                    33.94203817134308 
_cell_angle_alpha                 89.91583015114806 
_cell_angle_beta                  89.61177387703765 
_cell_angle_gamma                 89.99639567865283 
loop_ 
_atom_site_label 
_atom_site_type_symbol 
_atom_site_fract_x 
_atom_site_fract_y 
_atom_site_fract_z 
_atom_site_charge 
C1          C  0.36684830  0.37175468  0.99530155     0.02800
C2          C  0.35511490  0.35998347  0.29385864    -0.13400
C3          C  0.33514323  0.33659897  0.29545697     0.00300
C4          C  0.32636342  0.32503145  0.33190042    -0.11900
C5          C  0.33762640  0.33674376  0.03347237     0.02800
C6          C  0.35820791  0.35970266  0.03182525    -0.11300
H7          H  0.36150473  0.36902687  0.26549594     0.08400
H8          H  0.31042258  0.30730715  0.33312253     0.05900
H9          H  0.36722927  0.36838296  0.05890436     0.05800
C10         C  0.15542195  0.37242439  0.99696300     0.02800
C11         C  0.16701067  0.36125227  0.29482671    -0.13400
C12         C  0.18886648  0.33960583  0.29520632     0.00300
C13         C  0.19981150  0.32926055  0.33106640    -0.11900
C14         C  0.18849702  0.34010833  0.03330161     0.02800
C15         C  0.16608336  0.36132689  0.03292621    -0.11300
H16         H  0.15919616  0.36950979  0.26680960     0.08400
H17         H  0.21687936  0.31259810  0.33129662     0.05900
H18         H  0.15685168  0.36894487  0.06059474     0.05800
C19         C  0.36835313  0.15856382  0.99707974     0.02800
C20         C  0.35560498  0.16820272  0.29501631    -0.13400
C21         C  0.33288459  0.18902011  0.29555567     0.00300
C22         C  0.32202920  0.19953464  0.33154253    -0.11900
C23         C  0.33418111  0.18963168  0.03359849     0.02800
C24         C  0.35739468  0.16941032  0.03303953    -0.11300
H25         H  0.36356793  0.15975010  0.26706796     0.08400
H26         H  0.30443655  0.21564518  0.33199730     0.05900
H27         H  0.36693226  0.16215327  0.06058458     0.05800
N28         N  0.01080872  0.46991633  0.32176873    -0.37000
N29         N  0.46571179  0.01457610  0.32495976    -0.59300
N30         N  0.01080413  0.05936196  0.32699060    -0.36900
N31         N  0.05585960  0.01471117  0.32604561    -0.57500
C32         C  0.48672458  0.45387533  0.33129241     0.26600
C33         C  0.03468150  0.45390757  0.33178276     0.26600
C34         C  0.48662044  0.07479987  0.33762430     0.26600
C35         C  0.03450198  0.07478603  0.33908650     0.26600
C36         C  0.44948688  0.49113515  0.31413733     0.35300
C37         C  0.44946268  0.03860023  0.31665939     0.35300
C38         C  0.07254049  0.49127183  0.31616712     0.35300
C39         C  0.07251169  0.03880793  0.31930079     0.35300
C40         C  0.49535760  0.42734199  0.34771255    -0.22200
C41         C  0.02569378  0.42735408  0.34800659    -0.22200
C42         C  0.49497435  0.10029386  0.35688248    -0.22200
C43         C  0.02525693  0.10026131  0.35787920    -0.22200
C44         C  0.42287634  0.00028034  0.29857863    -0.23300
C45         C  0.42286882  0.03046435  0.30017177    -0.23300
C46         C  0.09992629  0.00050915  0.30276274    -0.23300
C47         C  0.09988672  0.03070803  0.30469928    -0.23300
C48         C  0.45746078  0.46174198  0.32194404    -0.18600
C49         C  0.06416242  0.46179479  0.32316546    -0.18600
C50         C  0.06410782  0.06754226  0.33036806    -0.18600
C51         C  0.45747079  0.06741326  0.32739107    -0.18600
H52         H  0.48129381  0.40957976  0.35763910     0.14300
H53         H  0.03954547  0.40959796  0.35823384     0.14300
H54         H  0.48075206  0.11733529  0.36849961     0.14300
H55         H  0.03891375  0.11730506  0.37039644     0.14300
H56         H  0.40514490  0.48662907  0.28788046     0.12600
H57         H  0.40512700  0.04474573  0.29101287     0.12600
H58         H  0.11821708  0.48691150  0.29339716     0.12600
H59         H  0.11814253  0.04498693  0.29721845     0.12600
H60         H  0.01100796  0.48899872  0.30476104     0.25800
H61         H  0.01116161  0.04132926  0.30811613     0.25800
C62         C  0.15191306  0.16027134  0.99865299     0.02800
C63         C  0.16359255  0.17037778  0.29595807    -0.13400
C64         C  0.18551244  0.19200650  0.29533105     0.00300
C65         C  0.19676864  0.20283779  0.33072673    -0.11900
C66         C  0.18594426  0.19227507  0.03341838     0.02800
C67         C  0.16345964  0.17120787  0.03405857    -0.11300
H68         H  0.15541917  0.16162048  0.26843232     0.08400
H69         H  0.21393609  0.21939721  0.33023761     0.05900
H70         H  0.15483929  0.16349739  0.06208113     0.05800
N71         N  0.29634685  0.31853680  0.20957593    -0.06500
N72         N  0.29981052  0.33625495  0.23995801    -0.58600
N73         N  0.31745433  0.29773675  0.11902715    -0.06100
N74         N  0.33615811  0.30131244  0.08941541    -0.60700
N75         N  0.29745330  0.31866189  0.11887063    -0.05700
N76         N  0.30219893  0.33697869  0.08931301    -0.58600
N77         N  0.31622908  0.29750942  0.21002914    -0.05400
N78         N  0.33359831  0.30037557  0.24081446    -0.61100
C79         C  0.32308918  0.32462786  0.25900413     0.95700
C80         C  0.32655813  0.32607464  0.07154879     0.95500
N81         N  0.29484649  0.20867864  0.11922800    -0.06600
N82         N  0.29831362  0.19070050  0.08906282    -0.59200
N83         N  0.31495554  0.22863336  0.21005480    -0.04800
N84         N  0.33278458  0.22459017  0.24012092    -0.60400
N85         N  0.29399307  0.20867717  0.21015605    -0.06700
N86         N  0.29704182  0.19066153  0.24042635    -0.59400
N87         N  0.31582323  0.22861819  0.11944449    -0.04400
N88         N  0.33407935  0.22460830  0.08952986    -0.60500
Mn89       Mn  0.31712744  0.26310930  0.16460321     1.18400
C90         C  0.32296727  0.20080336  0.07114667     0.97800
C91         C  0.32141843  0.20078804  0.25854651     0.98500
N92         N  0.22789235  0.32017887  0.11822435    -0.06700
N93         N  0.22437910  0.33851330  0.08839038    -0.63000
N94         N  0.20655869  0.30014671  0.20930926    -0.05500
N95         N  0.18873760  0.30404432  0.23974491    -0.63700
N96         N  0.22751080  0.32011564  0.20913035    -0.06200
N97         N  0.22447726  0.33798723  0.23948285    -0.63300
N98         N  0.20687268  0.30026500  0.11854346    -0.05100
N99         N  0.18861472  0.30463491  0.08899634    -0.64000
Mn100      Mn  0.26232617  0.32038762  0.16381438     1.10700
C101        C  0.19965727  0.32867867  0.07076056     0.99000
C102        C  0.20017000  0.32775966  0.25804659     0.99100
N103        N  0.22503206  0.21012011  0.20943562    -0.06200
N104        N  0.22092698  0.19207856  0.23944960    -0.61600
N105        N  0.20560444  0.23118412  0.11863954    -0.05500
N106        N  0.18763780  0.22799069  0.08854717    -0.58300
N107        N  0.22560414  0.21024844  0.11868780    -0.06800
N108        N  0.22164542  0.19231700  0.08862007    -0.61100
N109        N  0.20497583  0.23098627  0.20951310    -0.05800
N110        N  0.18674341  0.22756609  0.23965328    -0.58300
Mn111      Mn  0.25983963  0.20840374  0.16433649     1.20200
Mn112      Mn  0.20496721  0.26566147  0.16401277     1.10100
Cl113      Cl  0.26105513  0.26439340  0.16408893    -0.86300
C114        C  0.19687094  0.20309720  0.25771639     0.96000
C115        C  0.19782204  0.20360831  0.07036763     0.95800
C116        C  0.13244738  0.11244837  0.02278825    -0.26700
C117        C  0.12838021  0.13759319  0.99935388    -0.14700
C118        C  0.10235610  0.14008331  0.31003989     0.35900
C119        C  0.08272356  0.11638303  0.30885796    -0.26100
C120        C  0.08675825  0.09126529  0.33229223    -0.15300
C121        C  0.11164538  0.08973829  0.02387265     0.37000
N122        N  0.11619488  0.06618451  0.05146578    -0.89600
H123        H  0.15195595  0.11050413  0.04081823     0.18100
H124        H  0.06343289  0.11802954  0.29034876     0.18100
N125        N  0.09457107  0.16638960  0.28888397    -0.88600
H126        H  0.13433813  0.05398434  0.04174897     0.35500
H127        H  0.09818392  0.05203124  0.05316584     0.40600
H128        H  0.10853885  0.18379572  0.29569690     0.40200
H129        H  0.07386649  0.17308232  0.29911903     0.35100
C130        C  0.43804330  0.11571924  0.30456125    -0.26700
C131        C  0.43458112  0.09078291  0.32844496    -0.14700
C132        C  0.41013781  0.08885497  0.02062755     0.35900
C133        C  0.38899105  0.11126575  0.02073504    -0.26100
C134        C  0.39226809  0.13630213  0.99675275    -0.15300
C135        C  0.41784380  0.13898817  0.30600653     0.37000
N136        N  0.42464780  0.16509890  0.28372406    -0.89600
H137        H  0.45720983  0.11752924  0.28551126     0.18100
H138        H  0.36978981  0.10899604  0.03962167     0.18100
N139        N  0.40694363  0.06430980  0.04678923    -0.88600
H140        H  0.44538081  0.17239404  0.29267028     0.35500
H141        H  0.41042595  0.18230304  0.29077157     0.40600
H142        H  0.40601065  0.07232960  0.07562192     0.40200
H143        H  0.38687589  0.05405887  0.04077916     0.35100
C144        C  0.11043279  0.44153179  0.01775269    -0.26700
C145        C  0.08739018  0.43862259  0.32399012    -0.14700
C146        C  0.08675915  0.41369600  0.29899818     0.35900
C147        C  0.10861492  0.39218227  0.30262686    -0.26100
C148        C  0.13196664  0.39529889  0.99594360    -0.15300
C149        C  0.13310020  0.42060524  0.01998623     0.37000
N150        N  0.15757065  0.42538753  0.04584165    -0.89600
H151        H  0.11096214  0.46059983  0.03683820     0.18100
H152        H  0.10753010  0.37296590  0.28386557     0.18100
N153        N  0.06503196  0.40980765  0.26881847    -0.88600
H154        H  0.15496889  0.44502736  0.06144272     0.35500
H155        H  0.17640711  0.42788921  0.02828447     0.40600
H156        H  0.05158554  0.42821346  0.26559574     0.40200
H157        H  0.05160528  0.39215873  0.27711011     0.35100
C158        C  0.41317451  0.39229573  0.30081397    -0.26700
C159        C  0.38894997  0.39582234  0.99303597    -0.14700
C160        C  0.38667643  0.42197697  0.01557938     0.35900
C161        C  0.40986019  0.44229757  0.01449976    -0.26100
C162        C  0.43402938  0.43874900  0.32223458    -0.15300
C163        C  0.43515922  0.41372830  0.29748533     0.37000
N164        N  0.45756333  0.40965824  0.26785348    -0.89600
H165        H  0.41490693  0.37272659  0.28276999     0.18100
H166        H  0.40850592  0.46168256  0.03296336     0.18100
N167        N  0.36102837  0.42924721  0.03874077    -0.88600
H168        H  0.47078409  0.39204334  0.27660254     0.35500
H169        H  0.47107904  0.42804739  0.26474716     0.40600
H170        H  0.34381880  0.41461292  0.03371243     0.40200
H171        H  0.35322983  0.44952590  0.02867956     0.35100
C172        C  0.36684901  0.37175452  0.32863520     0.02800
C173        C  0.35511441  0.35998315  0.62719181    -0.13400
C174        C  0.33514253  0.33659885  0.62879024     0.00300
C175        C  0.32636262  0.32503139  0.66523366    -0.11900
C176        C  0.33762695  0.33674372  0.36680590     0.02800
C177        C  0.35820844  0.35970263  0.36515889    -0.11300
H178        H  0.36150431  0.36902645  0.59882910     0.08400
H179        H  0.31042161  0.30730722  0.66645576     0.05900
H180        H  0.36722968  0.36838300  0.39223802     0.05800
C181        C  0.15542211  0.37242475  0.33029627     0.02800
C182        C  0.16701061  0.36125219  0.62815983    -0.13400
C183        C  0.18886638  0.33960570  0.62853916     0.00300
C184        C  0.19981156  0.32926034  0.66439913    -0.11900
C185        C  0.18849677  0.34010829  0.36663484     0.02800
C186        C  0.16608338  0.36132710  0.36625944    -0.11300
H187        H  0.15919603  0.36950983  0.60014283     0.08400
H188        H  0.21687941  0.31259788  0.66462909     0.05900
H189        H  0.15685177  0.36894514  0.39392800     0.05800
C190        C  0.36835311  0.15856307  0.33041268     0.02800
C191        C  0.35560472  0.16820305  0.62834989    -0.13400
C192        C  0.33288424  0.18902034  0.62888926     0.00300
C193        C  0.32202851  0.19953453  0.66487612    -0.11900
C194        C  0.33418178  0.18963149  0.36693180     0.02800
C195        C  0.35739501  0.16940973  0.36637259    -0.11300
H196        H  0.36356786  0.15975064  0.60040152     0.08400
H197        H  0.30443580  0.21564499  0.66533088     0.05900
H198        H  0.36693261  0.16215245  0.39391753     0.05800
N199        N  0.01080889  0.46991599  0.65510187    -0.37000
N200        N  0.46571152  0.01457628  0.65829309    -0.59300
N201        N  0.01080400  0.05936218  0.66032426    -0.36900
N202        N  0.05585950  0.01471137  0.65937981    -0.57500
C203        C  0.48672421  0.45387493  0.66462588     0.26600
C204        C  0.03468162  0.45390735  0.66511631     0.26600
C205        C  0.48661988  0.07480020  0.67095793     0.26600
C206        C  0.03450175  0.07478614  0.67242072     0.26600
C207        C  0.44948674  0.49113472  0.64747016     0.35300
C208        C  0.44946241  0.03860041  0.64999261     0.35300
C209        C  0.07254071  0.49127182  0.64950145     0.35300
C210        C  0.07251160  0.03880815  0.65263504     0.35300
C211        C  0.49535712  0.42734164  0.68104626    -0.22200
C212        C  0.02569380  0.42735375  0.68133980    -0.22200
C213        C  0.49497365  0.10029416  0.69021622    -0.22200
C214        C  0.02525658  0.10026115  0.69121390    -0.22200
C215        C  0.42287632  0.00028050  0.63191129    -0.23300
C216        C  0.42286872  0.03046451  0.63350458    -0.23300
C217        C  0.09992630  0.00050936  0.63609729    -0.23300
C218        C  0.09988671  0.03070825  0.63803374    -0.23300
C219        C  0.45746050  0.46174152  0.65527707    -0.18600
C220        C  0.06416262  0.46179471  0.65649957    -0.18600
C221        C  0.06410764  0.06754246  0.66370235    -0.18600
C222        C  0.45747033  0.06741345  0.66072449    -0.18600
H223        H  0.48129328  0.40957940  0.69097266     0.14300
H224        H  0.03954542  0.40959764  0.69156730     0.14300
H225        H  0.48075130  0.11733553  0.70183343     0.14300
H226        H  0.03891335  0.11730476  0.70373161     0.14300
H227        H  0.40514499  0.48662863  0.62121272     0.12600
H228        H  0.40512698  0.04474589  0.62434546     0.12600
H229        H  0.11821752  0.48691166  0.62673215     0.12600
H230        H  0.11814256  0.04498715  0.63055307     0.12600
H231        H  0.01100824  0.48899856  0.63809425     0.25800
H232        H  0.01116162  0.04132978  0.64144954     0.25800
C233        C  0.15191312  0.16027129  0.33198544     0.02800
C234        C  0.16359241  0.17037767  0.62929147    -0.13400
C235        C  0.18551241  0.19200628  0.62866410     0.00300
C236        C  0.19676861  0.20283783  0.66405964    -0.11900
C237        C  0.18594449  0.19227452  0.36675142     0.02800
C238        C  0.16345965  0.17120756  0.36739122    -0.11300
H239        H  0.15541892  0.16162019  0.60176586     0.08400
H240        H  0.21393610  0.21939722  0.66357031     0.05900
H241        H  0.15483913  0.16349697  0.39541363     0.05800
N242        N  0.29634656  0.31853672  0.54290901    -0.06500
N243        N  0.29980995  0.33625477  0.57329126    -0.58600
N244        N  0.31745448  0.29773673  0.45236043    -0.06100
N245        N  0.33615847  0.30131249  0.42274894    -0.60700
N246        N  0.29745337  0.31866177  0.45220366    -0.05700
N247        N  0.30219911  0.33697858  0.42264608    -0.58600
N248        N  0.31622887  0.29750942  0.54336231    -0.05400
N249        N  0.33359793  0.30037555  0.57414778    -0.61100
C250        C  0.32308856  0.32462771  0.59233748     0.95700
C251        C  0.32655851  0.32607465  0.40488220     0.95500
N252        N  0.29484695  0.20867839  0.45256123    -0.06600
N253        N  0.29831430  0.19070016  0.42239618    -0.59200
N254        N  0.31495557  0.22863341  0.54338811    -0.04800
N255        N  0.33278439  0.22459041  0.57345450    -0.60400
N256        N  0.29399322  0.20867711  0.54348918    -0.06700
N257        N  0.29704179  0.19066159  0.57375963    -0.59400
N258        N  0.31582359  0.22861806  0.45277774    -0.04400
N259        N  0.33407982  0.22460817  0.42286321    -0.60500
Mn260      Mn  0.31712749  0.26310928  0.49793646     1.18400
C261        C  0.32296799  0.20080306  0.40448012     0.97800
C262        C  0.32141819  0.20078832  0.59188009     0.98500
N263        N  0.22789227  0.32017855  0.45155723    -0.06700
N264        N  0.22437880  0.33851320  0.42172358    -0.63000
N265        N  0.20655862  0.30014644  0.54264212    -0.05500
N266        N  0.18873744  0.30404418  0.57307765    -0.63700
N267        N  0.22751069  0.32011541  0.54246316    -0.06200
N268        N  0.22447704  0.33798714  0.57281549    -0.63300
N269        N  0.20687266  0.30026462  0.45187630    -0.05100
N270        N  0.18861452  0.30463469  0.42232940    -0.64000
Mn271      Mn  0.26232608  0.32038742  0.49714729     1.10700
C272        C  0.19965694  0.32867860  0.40409381     0.99000
C273        C  0.20016975  0.32775962  0.59137923     0.99100
N274        N  0.22503214  0.21011985  0.54276864    -0.06200
N275        N  0.22092698  0.19207823  0.57278256    -0.61600
N276        N  0.20560460  0.23118368  0.45197251    -0.05500
N277        N  0.18763787  0.22799006  0.42188027    -0.58300
N278        N  0.22560440  0.21024810  0.45202078    -0.06800
N279        N  0.22164562  0.19231651  0.42195320    -0.61100
N280        N  0.20497586  0.23098596  0.54284609    -0.05800
N281        N  0.18674337  0.22756571  0.57298618    -0.58300
Mn282      Mn  0.25983988  0.20840353  0.49766954     1.20200
Mn283      Mn  0.20496723  0.26566111  0.49734568     1.10100
Cl284      Cl  0.26105516  0.26439318  0.49742194    -0.86300
C285        C  0.19687083  0.20309678  0.59104924     0.96000
C286        C  0.19782209  0.20360763  0.40370086     0.95800
C287        C  0.13244761  0.11244819  0.35612020    -0.26700
C288        C  0.12838030  0.13759312  0.33268610    -0.14700
C289        C  0.10235575  0.14008365  0.64337419     0.35900
C290        C  0.08272313  0.11638340  0.64219251    -0.26100
C291        C  0.08675799  0.09126559  0.66562662    -0.15300
C292        C  0.11164549  0.08973825  0.35720490     0.37000
N293        N  0.11619509  0.06618450  0.38479801    -0.89600
H294        H  0.15195629  0.11050379  0.37414991     0.18100
H295        H  0.06343233  0.11802995  0.62368356     0.18100
N296        N  0.09457060  0.16639002  0.62221852    -0.88600
H297        H  0.13433807  0.05398416  0.37508088     0.35500
H298        H  0.09818395  0.05203139  0.38649862     0.40600
H299        H  0.10853872  0.18379609  0.62903100     0.40200
H300        H  0.07386631  0.17308290  0.63245414     0.35100
C301        C  0.43804273  0.11571936  0.63789478    -0.26700
C302        C  0.43458056  0.09078300  0.66177838    -0.14700
C303        C  0.41013752  0.08885393  0.35395983     0.35900
C304        C  0.38899079  0.11126475  0.35406742    -0.26100
C305        C  0.39226792  0.13630123  0.33008538    -0.15300
C306        C  0.41784332  0.13898832  0.63934023     0.37000
N307        N  0.42464749  0.16509917  0.61705809    -0.89600
H308        H  0.45720929  0.11752942  0.61884481     0.18100
H309        H  0.36978954  0.10899504  0.37295402     0.18100
N310        N  0.40694321  0.06430864  0.38012130    -0.88600
H311        H  0.44538060  0.17239412  0.62600438     0.35500
H312        H  0.41042578  0.18230328  0.62410582     0.40600
H313        H  0.40601012  0.07232834  0.40895420     0.40200
H314        H  0.38687555  0.05405780  0.37411103     0.35100
C315        C  0.11043326  0.44153219  0.35108613    -0.26700
C316        C  0.08739036  0.43862251  0.65732409    -0.14700
C317        C  0.08675935  0.41369613  0.63233181     0.35900
C318        C  0.10861500  0.39218227  0.63596042    -0.26100
C319        C  0.13196689  0.39529928  0.32927697    -0.15300
C320        C  0.13310072  0.42060570  0.35331938     0.37000
N321        N  0.15757145  0.42538806  0.37917430    -0.89600
H322        H  0.11096282  0.46060032  0.37017150     0.18100
H323        H  0.10753015  0.37296601  0.61719893     0.18100
N324        N  0.06503236  0.40980815  0.60215176    -0.88600
H325        H  0.15496988  0.44502808  0.39477527     0.35500
H326        H  0.17640770  0.42788957  0.36161684     0.40600
H327        H  0.05158607  0.42821418  0.59892902     0.40200
H328        H  0.05160552  0.39215936  0.61044296     0.35100
C329        C  0.41317436  0.39229498  0.63414745    -0.26700
C330        C  0.38895072  0.39582210  0.32636967    -0.14700
C331        C  0.38667704  0.42197686  0.34891271     0.35900
C332        C  0.40986083  0.44229743  0.34783313    -0.26100
C333        C  0.43402907  0.43874853  0.65556759    -0.15300
C334        C  0.43515913  0.41372749  0.63081884     0.37000
N335        N  0.45756352  0.40965708  0.60118746    -0.89600
H336        H  0.41490687  0.37272570  0.61610375     0.18100
H337        H  0.40850648  0.46168253  0.36629650     0.18100
N338        N  0.36102884  0.42924728  0.37207372    -0.88600
H339        H  0.47078423  0.39204221  0.60993716     0.35500
H340        H  0.47107916  0.42804609  0.59808092     0.40600
H341        H  0.34381928  0.41461288  0.36704544     0.40200
H342        H  0.35323036  0.44952582  0.36201218     0.35100
C343        C  0.36684861  0.37175409  0.66196834     0.02800
C344        C  0.35511407  0.35998365  0.96052502    -0.13400
C345        C  0.33514249  0.33659905  0.96212344     0.00300
C346        C  0.32636273  0.32503156  0.99856693    -0.11900
C347        C  0.33762639  0.33674343  0.70013911     0.02800
C348        C  0.35820805  0.35970218  0.69849204    -0.11300
H349        H  0.36150374  0.36902709  0.93216229     0.08400
H350        H  0.31042186  0.30730729  0.99978910     0.05900
H351        H  0.36722944  0.36838245  0.72557114     0.05800
C352        C  0.15542218  0.37242454  0.66362955     0.02800
C353        C  0.16701053  0.36125188  0.96149344    -0.13400
C354        C  0.18886647  0.33960557  0.96187307     0.00300
C355        C  0.19981172  0.32926053  0.99773316    -0.11900
C356        C  0.18849698  0.34010797  0.69996773     0.02800
C357        C  0.16608356  0.36132674  0.69959257    -0.11300
H358        H  0.15919594  0.36950927  0.93347631     0.08400
H359        H  0.21687968  0.31259817  0.99796338     0.05900
H360        H  0.15685200  0.36894466  0.72726123     0.05800
C361        C  0.36835257  0.15856312  0.66374627     0.02800
C362        C  0.35560509  0.16820333  0.96168322    -0.13400
C363        C  0.33288428  0.18902028  0.96222238     0.00300
C364        C  0.32202848  0.19953457  0.99820912    -0.11900
C365        C  0.33418087  0.18963112  0.70026540     0.02800
C366        C  0.35739416  0.16940942  0.69970621    -0.11300
H367        H  0.36356831  0.15975084  0.93373493     0.08400
H368        H  0.30443553  0.21564480  0.99866374     0.05900
H369        H  0.36693158  0.16215198  0.72725118     0.05800
N370        N  0.01080854  0.46991630  0.98843433    -0.37000
N371        N  0.46571142  0.01457679  0.99162613    -0.59300
N372        N  0.01080417  0.05936215  0.99365727    -0.36900
N373        N  0.05585949  0.01471110  0.99271164    -0.57500
C374        C  0.48672384  0.45387541  0.99795841     0.26600
C375        C  0.03468127  0.45390738  0.99844814     0.26600
C376        C  0.48662042  0.07480029  0.00429168     0.26600
C377        C  0.03450210  0.07478596  0.00575345     0.26600
C378        C  0.44948619  0.49113549  0.98080396     0.35300
C379        C  0.44946238  0.03860110  0.98332641     0.35300
C380        C  0.07254051  0.49127167  0.98283316     0.35300
C381        C  0.07251181  0.03880781  0.98596750     0.35300
C382        C  0.49535676  0.42734198  0.01437831    -0.22200
C383        C  0.02569340  0.42735384  0.01467173    -0.22200
C384        C  0.49497451  0.10029402  0.02355022    -0.22200
C385        C  0.02525718  0.10026119  0.02454640    -0.22200
C386        C  0.42287562  0.00028155  0.96524553    -0.23300
C387        C  0.42286834  0.03046554  0.96683907    -0.23300
C388        C  0.09992632  0.00050896  0.96942939    -0.23300
C389        C  0.09988697  0.03070784  0.97136643    -0.23300
C390        C  0.45746003  0.46174225  0.98861038    -0.18600
C391        C  0.06416228  0.46179459  0.98983119    -0.18600
C392        C  0.06410796  0.06754212  0.99703504    -0.18600
C393        C  0.45747074  0.06741399  0.99405833    -0.18600
H394        H  0.48129290  0.40957980  0.02430490     0.14300
H395        H  0.03954497  0.40959757  0.02489882     0.14300
H396        H  0.48075235  0.11733547  0.03516761     0.14300
H397        H  0.03891409  0.11730476  0.03706390     0.14300
H398        H  0.40514403  0.48662969  0.95454750     0.12600
H399        H  0.40512658  0.04474715  0.95768060     0.12600
H400        H  0.11821733  0.48691131  0.96006400     0.12600
H401        H  0.11814301  0.04498663  0.96388629     0.12600
H402        H  0.01100783  0.48899887  0.97142688     0.25800
H403        H  0.01116155  0.04132951  0.97478266     0.25800
C404        C  0.15191298  0.16027147  0.66531898     0.02800
C405        C  0.16359229  0.17037772  0.96262547    -0.13400
C406        C  0.18551194  0.19200665  0.96199802     0.00300
C407        C  0.19676817  0.20283825  0.99739351    -0.11900
C408        C  0.18594438  0.19227490  0.70008450     0.02800
C409        C  0.16345952  0.17120799  0.70072457    -0.11300
H410        H  0.15541886  0.16162021  0.93509986     0.08400
H411        H  0.21393548  0.21939780  0.99690411     0.05900
H412        H  0.15483896  0.16349763  0.72874707     0.05800
N413        N  0.29634633  0.31853660  0.87624233    -0.06500
N414        N  0.29980985  0.33625477  0.90662442    -0.58600
N415        N  0.31745397  0.29773643  0.78569372    -0.06100
N416        N  0.33615790  0.30131213  0.75608216    -0.60700
N417        N  0.29745291  0.31866153  0.78553701    -0.05700
N418        N  0.30219864  0.33697830  0.75597939    -0.58600
N419        N  0.31622861  0.29750927  0.87669565    -0.05400
N420        N  0.33359776  0.30037552  0.90748104    -0.61100
C421        C  0.32308849  0.32462778  0.92567064     0.95700
C422        C  0.32655798  0.32607433  0.73821544     0.95500
N423        N  0.29484615  0.20867821  0.78589486    -0.06600
N424        N  0.29831335  0.19069997  0.75572978    -0.59200
N425        N  0.31495508  0.22863317  0.87672135    -0.04800
N426        N  0.33278421  0.22459002  0.90678735    -0.60400
N427        N  0.29399256  0.20867703  0.87682282    -0.06700
N428        N  0.29704135  0.19066149  0.90709322    -0.59400
N429        N  0.31582293  0.22861773  0.78611132    -0.04400
N430        N  0.33407915  0.22460770  0.75619682    -0.60500
Mn431      Mn  0.31712700  0.26310903  0.83126983     1.18400
C432        C  0.32296711  0.20080269  0.73781373     0.97800
C433        C  0.32141807  0.20078800  0.92521315     0.98500
N434        N  0.22789208  0.32017844  0.78489067    -0.06700
N435        N  0.22437905  0.33851274  0.75505652    -0.63000
N436        N  0.20655824  0.30014653  0.87597570    -0.05500
N437        N  0.18873727  0.30404413  0.90641149    -0.63700
N438        N  0.22751040  0.32011540  0.87579673    -0.06200
N439        N  0.22447706  0.33798691  0.90614935    -0.63300
N440        N  0.20687231  0.30026467  0.78520985    -0.05100
N441        N  0.18861444  0.30463457  0.75566262    -0.64000
Mn442      Mn  0.26232575  0.32038732  0.83048073     1.10700
C443        C  0.19965724  0.32867814  0.73742663     0.99000
C444        C  0.20016988  0.32775935  0.92471327     0.99100
N445        N  0.22503141  0.21011999  0.87610236    -0.06200
N446        N  0.22092634  0.19207850  0.90611643    -0.61600
N447        N  0.20560394  0.23118381  0.78530610    -0.05500
N448        N  0.18763750  0.22799043  0.75521349    -0.58300
N449        N  0.22560372  0.21024821  0.78535445    -0.06800
N450        N  0.22164526  0.19231688  0.75528654    -0.61100
N451        N  0.20497512  0.23098608  0.87617970    -0.05800
N452        N  0.18674266  0.22756593  0.90631986    -0.58300
Mn453      Mn  0.25983913  0.20840355  0.83100327     1.20200
Mn454      Mn  0.20496668  0.26566123  0.83067928     1.10100
Cl455      Cl  0.26105466  0.26439315  0.83075554    -0.86300
C456        C  0.19687025  0.20309711  0.92438312     0.96000
C457        C  0.19782196  0.20360817  0.73703388     0.95800
C458        C  0.13244758  0.11244840  0.68945403    -0.26700
C459        C  0.12838013  0.13759334  0.66601998    -0.14700
C460        C  0.10235624  0.14008323  0.97670721     0.35900
C461        C  0.08272387  0.11638282  0.97552498    -0.26100
C462        C  0.08675841  0.09126515  0.99895946    -0.15300
C463        C  0.11164541  0.08973849  0.69053901     0.37000
N464        N  0.11619526  0.06618462  0.71813187    -0.89600
H465        H  0.15195643  0.11050398  0.70748342     0.18100
H466        H  0.06343338  0.11802921  0.95701542     0.18100
N467        N  0.09457124  0.16638950  0.95555118    -0.88600
H468        H  0.13433815  0.05398429  0.70841431     0.35500
H469        H  0.09818412  0.05203154  0.71983271     0.40600
H470        H  0.10853876  0.18379589  0.96236480     0.40200
H471        H  0.07386654  0.17308192  0.96578558     0.35100
C472        C  0.43804340  0.11572002  0.97122858    -0.26700
C473        C  0.43458126  0.09078381  0.99511247    -0.14700
C474        C  0.41013696  0.08885393  0.68729323     0.35900
C475        C  0.38899017  0.11126470  0.68740081    -0.26100
C476        C  0.39226737  0.13630127  0.66341893    -0.15300
C477        C  0.41784394  0.13898897  0.97267383     0.37000
N478        N  0.42464794  0.16509962  0.95039120    -0.89600
H479        H  0.45720986  0.11752991  0.95217842     0.18100
H480        H  0.36978886  0.10899490  0.70628730     0.18100
N481        N  0.40694270  0.06430858  0.71345460    -0.88600
H482        H  0.44538105  0.17239472  0.95933735     0.35500
H483        H  0.41042622  0.18230372  0.95743869     0.40600
H484        H  0.40600954  0.07232817  0.74228754     0.40200
H485        H  0.38687510  0.05405767  0.70744419     0.35100
C486        C  0.11043336  0.44153190  0.68442025    -0.26700
C487        C  0.08739003  0.43862235  0.99065614    -0.14700
C488        C  0.08675926  0.41369586  0.96566400     0.35900
C489        C  0.10861491  0.39218202  0.96929306    -0.26100
C490        C  0.13196695  0.39529908  0.66261057    -0.15300
C491        C  0.13310079  0.42060536  0.68665326     0.37000
N492        N  0.15757151  0.42538752  0.71250826    -0.89600
H493        H  0.11096288  0.46059989  0.70350586     0.18100
H494        H  0.10753017  0.37296568  0.95053171     0.18100
N495        N  0.06503236  0.40980763  0.93548389    -0.88600
H496        H  0.15496995  0.44502736  0.72810948     0.35500
H497        H  0.17640778  0.42788916  0.69495082     0.40600
H498        H  0.05158599  0.42821348  0.93226104     0.40200
H499        H  0.05160559  0.39215875  0.94377528     0.35100
C500        C  0.41317358  0.39229616  0.96747992    -0.26700
C501        C  0.38895039  0.39582159  0.65970277    -0.14700
C502        C  0.38667655  0.42197650  0.68224545     0.35900
C503        C  0.40986032  0.44229712  0.68116580    -0.26100
C504        C  0.43402858  0.43874934  0.98890089    -0.15300
C505        C  0.43515825  0.41372879  0.96415131     0.37000
N506        N  0.45756220  0.40965891  0.93451923    -0.89600
H507        H  0.41490592  0.37272716  0.94943569     0.18100
H508        H  0.40850580  0.46168236  0.69962889     0.18100
N509        N  0.36102820  0.42924699  0.70540615    -0.88600
H510        H  0.47078299  0.39204399  0.94326802     0.35500
H511        H  0.47107788  0.42804810  0.93141291     0.40600
H512        H  0.34381875  0.41461238  0.70037813     0.40200
H513        H  0.35322959  0.44952534  0.69534411     0.35100
C514        C  0.36684848  0.87175458  0.99530150     0.02800
C515        C  0.35511533  0.85998281  0.29385915    -0.13400
C516        C  0.33514379  0.83659822  0.29545744     0.00300
C517        C  0.32636397  0.82503069  0.33190085    -0.11900
C518        C  0.33762698  0.83674350  0.03347252     0.02800
C519        C  0.35820826  0.85970258  0.03182527    -0.11300
H520        H  0.36150516  0.86902622  0.26549648     0.08400
H521        H  0.31042317  0.80730634  0.33312290     0.05900
H522        H  0.36722958  0.86838301  0.05890432     0.05800
C523        C  0.15542217  0.87242439  0.99696293     0.02800
C524        C  0.16701108  0.86125205  0.29482666    -0.13400
C525        C  0.18886686  0.83960558  0.29520630     0.00300
C526        C  0.19981191  0.82926035  0.33106638    -0.11900
C527        C  0.18849746  0.84010855  0.03330165     0.02800
C528        C  0.16608368  0.86132698  0.03292616    -0.11300
H529        H  0.15919660  0.86950957  0.26680955     0.08400
H530        H  0.21687977  0.81259789  0.33129661     0.05900
H531        H  0.15685197  0.86894495  0.06059469     0.05800
C532        C  0.36835343  0.65856370  0.99707955     0.02800
C533        C  0.35560557  0.66820291  0.29501648    -0.13400
C534        C  0.33288490  0.68901999  0.29555566     0.00300
C535        C  0.32202918  0.69953439  0.33154244    -0.11900
C536        C  0.33418154  0.68963176  0.03359821     0.02800
C537        C  0.35739507  0.66941036  0.03303931    -0.11300
H538        H  0.36356881  0.65975042  0.26706821     0.08400
H539        H  0.30443636  0.71564475  0.33199707     0.05900
H540        H  0.36693265  0.66215335  0.06058439     0.05800
N541        N  0.01080890  0.96991603  0.32176904    -0.37000
N542        N  0.46571199  0.51457651  0.32495928    -0.59300
N543        N  0.01080431  0.55936218  0.32699004    -0.36900
N544        N  0.05585959  0.51471136  0.32604503    -0.57500
C545        C  0.48672452  0.95387515  0.33129377     0.26600
C546        C  0.03468172  0.95390725  0.33178296     0.26600
C547        C  0.48662079  0.57480014  0.33762454     0.26600
C548        C  0.03450222  0.57478615  0.33908592     0.26600
C549        C  0.44948686  0.99113463  0.31413773     0.35300
C550        C  0.44946293  0.53860076  0.31665932     0.35300
C551        C  0.07254059  0.99127173  0.31616752     0.35300
C552        C  0.07251174  0.53880802  0.31929992     0.35300
C553        C  0.49535744  0.92734195  0.34771440    -0.22200
C554        C  0.02569399  0.92735369  0.34800658    -0.22200
C555        C  0.49497483  0.60029391  0.35688309    -0.22200
C556        C  0.02525729  0.60026135  0.35787886    -0.22200
C557        C  0.42287630  0.50028106  0.29857860    -0.23300
C558        C  0.42286896  0.53046507  0.30017187    -0.23300
C559        C  0.09992620  0.50050909  0.30276217    -0.23300
C560        C  0.09988673  0.53070797  0.30469838    -0.23300
C561        C  0.45746081  0.96174155  0.32194482    -0.18600
C562        C  0.06416264  0.96179460  0.32316570    -0.18600
C563        C  0.06410802  0.56754235  0.33036729    -0.18600
C564        C  0.45747113  0.56741369  0.32739134    -0.18600
H565        H  0.48129356  0.90957982  0.35764106     0.14300
H566        H  0.03954567  0.90959749  0.35823368     0.14300
H567        H  0.48075260  0.61733524  0.36850068     0.14300
H568        H  0.03891419  0.61730500  0.37039622     0.14300
H569        H  0.40514509  0.98662821  0.28788035     0.12600
H570        H  0.40512717  0.54474660  0.29101327     0.12600
H571        H  0.11821724  0.98691167  0.29339766     0.12600
H572        H  0.11814259  0.54498677  0.29721747     0.12600
H573        H  0.01100809  0.98899830  0.30476159     0.25800
H574        H  0.01116168  0.54132953  0.30811545     0.25800
C575        C  0.15191359  0.66027116  0.99865284     0.02800
C576        C  0.16359304  0.67037764  0.29595785    -0.13400
C577        C  0.18551292  0.69200637  0.29533092     0.00300
C578        C  0.19676904  0.70283767  0.33072665    -0.11900
C579        C  0.18594463  0.69227494  0.03341841     0.02800
C580        C  0.16346006  0.67120767  0.03405850    -0.11300
H581        H  0.15541970  0.66162035  0.26843206     0.08400
H582        H  0.21393649  0.71939707  0.33023761     0.05900
H583        H  0.15483966  0.66349712  0.06208099     0.05800
N584        N  0.29634738  0.81853643  0.20957628    -0.06500
N585        N  0.29981105  0.83625443  0.23995854    -0.58600
N586        N  0.31745497  0.79773664  0.11902739    -0.06100
N587        N  0.33615871  0.80131225  0.08941560    -0.60700
N588        N  0.29745400  0.81866183  0.11887091    -0.05700
N589        N  0.30219963  0.83697860  0.08931325    -0.58600
N590        N  0.31622958  0.79750902  0.21002938    -0.05400
N591        N  0.33359879  0.80037499  0.24081474    -0.61100
C592        C  0.32308966  0.82462719  0.25900461     0.95700
C593        C  0.32655880  0.82607449  0.07154901     0.95500
N594        N  0.29484698  0.70867852  0.11922782    -0.06600
N595        N  0.29831402  0.69070050  0.08906249    -0.59200
N596        N  0.31495602  0.72863304  0.21005466    -0.04800
N597        N  0.33278500  0.72458988  0.24012083    -0.60400
N598        N  0.29399359  0.70867681  0.21015583    -0.06700
N599        N  0.29704232  0.69066116  0.24042612    -0.59400
N600        N  0.31582375  0.72861803  0.11944440    -0.04400
N601        N  0.33407984  0.72460822  0.08952971    -0.60500
Mn602      Mn  0.31712793  0.76310906  0.16460326     1.18400
C603        C  0.32296767  0.70080340  0.07114636     0.97800
C604        C  0.32141887  0.70078774  0.25854637     0.98500
N605        N  0.22789293  0.82017887  0.11822433    -0.06700
N606        N  0.22437959  0.83851344  0.08839051    -0.63000
N607        N  0.20655918  0.80014652  0.20930922    -0.05500
N608        N  0.18873799  0.80404414  0.23974475    -0.63700
N609        N  0.22751136  0.82011538  0.20913048    -0.06200
N610        N  0.22447776  0.83798693  0.23948301    -0.63300
N611        N  0.20687326  0.80026500  0.11854337    -0.05100
N612        N  0.18861520  0.80463506  0.08899639    -0.64000
Mn613      Mn  0.26232677  0.82038746  0.16381457     1.10700
C614        C  0.19965770  0.82867889  0.07076070     0.99000
C615        C  0.20017042  0.82775940  0.25804660     0.99100
N616        N  0.22503256  0.71011999  0.20943550    -0.06200
N617        N  0.22092747  0.69207841  0.23944947    -0.61600
N618        N  0.20560490  0.73118402  0.11863946    -0.05500
N619        N  0.18763820  0.72799057  0.08854717    -0.58300
N620        N  0.22560458  0.71024833  0.11868773    -0.06800
N621        N  0.22164578  0.69231684  0.08862007    -0.61100
N622        N  0.20497635  0.73098616  0.20951301    -0.05800
N623        N  0.18674395  0.72756599  0.23965321    -0.58300
Mn624      Mn  0.25984012  0.70840360  0.16433634     1.20200
Mn625      Mn  0.20496775  0.76566139  0.16401267     1.10100
Cl626      Cl  0.26105564  0.76439326  0.16408893    -0.86300
C627        C  0.19687146  0.70309708  0.25771629     0.96000
C628        C  0.19782237  0.70360814  0.07036768     0.95800
C629        C  0.13244794  0.61244804  0.02278754    -0.26700
C630        C  0.12838074  0.63759304  0.99935350    -0.14700
C631        C  0.10235649  0.64008336  0.31003945     0.35900
C632        C  0.08272390  0.61638312  0.30885743    -0.26100
C633        C  0.08675855  0.59126528  0.33229154    -0.15300
C634        C  0.11164582  0.58973804  0.02387175     0.37000
N635        N  0.11619534  0.56618405  0.05146450    -0.89600
H636        H  0.15195653  0.61050361  0.04081739     0.18100
H637        H  0.06343320  0.61802973  0.29034830     0.18100
N638        N  0.09457151  0.66638975  0.28888369    -0.88600
H639        H  0.13433839  0.55398394  0.04174738     0.35500
H640        H  0.09818418  0.55203074  0.05316458     0.40600
H641        H  0.10853941  0.68379588  0.29569675     0.40200
H642        H  0.07386701  0.67308249  0.29911881     0.35100
C643        C  0.43804389  0.61571989  0.30456210    -0.26700
C644        C  0.43458160  0.59078343  0.32844553    -0.14700
C645        C  0.41013819  0.58885496  0.02062751     0.35900
C646        C  0.38899143  0.61126574  0.02073505    -0.26100
C647        C  0.39226839  0.63630205  0.99675259    -0.15300
C648        C  0.41784435  0.63898876  0.30600739     0.37000
N649        N  0.42464841  0.66509963  0.28372522    -0.89600
H650        H  0.45721049  0.61753002  0.28551226     0.18100
H651        H  0.36979027  0.60899607  0.03962181     0.18100
N652        N  0.40694406  0.56430976  0.04678916    -0.88600
H653        H  0.44538133  0.67239476  0.29267179     0.35500
H654        H  0.41042650  0.68230366  0.29077266     0.40600
H655        H  0.40601120  0.57232946  0.07562192     0.40200
H656        H  0.38687625  0.55405885  0.04077914     0.35100
C657        C  0.11043282  0.94153167  0.01775258    -0.26700
C658        C  0.08739052  0.93862246  0.32399013    -0.14700
C659        C  0.08675957  0.91369598  0.29899801     0.35900
C660        C  0.10861534  0.89218221  0.30262662    -0.26100
C661        C  0.13196679  0.89529886  0.99594346    -0.15300
C662        C  0.13310031  0.92060520  0.01998602     0.37000
N663        N  0.15757080  0.92538758  0.04584132    -0.89600
H664        H  0.11096214  0.96059972  0.03683811     0.18100
H665        H  0.10753047  0.87296586  0.28386529     0.18100
N666        N  0.06503232  0.90980767  0.26881838    -0.88600
H667        H  0.15496902  0.94502746  0.06144240     0.35500
H668        H  0.17640716  0.92788927  0.02828410     0.40600
H669        H  0.05158585  0.92821354  0.26559577     0.40200
H670        H  0.05160574  0.89215879  0.27711004     0.35100
C671        C  0.41317506  0.89229486  0.30081514    -0.26700
C672        C  0.38895000  0.89582231  0.99303579    -0.14700
C673        C  0.38667627  0.92197702  0.01557898     0.35900
C674        C  0.40986000  0.94229765  0.01449943    -0.26100
C675        C  0.43402954  0.93874846  0.32223530    -0.15300
C676        C  0.43515980  0.91372740  0.29748664     0.37000
N677        N  0.45756437  0.90965698  0.26785552    -0.89600
H678        H  0.41490768  0.87272556  0.28277152     0.18100
H679        H  0.40850561  0.96168267  0.03296295     0.18100
N680        N  0.36102818  0.92924721  0.03874033    -0.88600
H681        H  0.47078515  0.89204218  0.27660547     0.35500
H682        H  0.47107997  0.92804605  0.26474905     0.40600
H683        H  0.34381879  0.91461280  0.03371224     0.40200
H684        H  0.35322947  0.94952587  0.02867893     0.35100
C685        C  0.36684928  0.87175393  0.32863574     0.02800
C686        C  0.35511491  0.85998284  0.62719188    -0.13400
C687        C  0.33514310  0.83659845  0.62879025     0.00300
C688        C  0.32636315  0.82503103  0.66523369    -0.11900
C689        C  0.33762730  0.83674307  0.36680634     0.02800
C690        C  0.35820862  0.85970210  0.36515940    -0.11300
H691        H  0.36150484  0.86902617  0.59882919     0.08400
H692        H  0.31042220  0.80730683  0.66645578     0.05900
H693        H  0.36722970  0.86838257  0.39223858     0.05800
C694        C  0.15542251  0.87242455  0.33029619     0.02800
C695        C  0.16701039  0.86125177  0.62815977    -0.13400
C696        C  0.18886634  0.83960547  0.62853916     0.00300
C697        C  0.19981164  0.82926027  0.66439913    -0.11900
C698        C  0.18849721  0.84010811  0.36663480     0.02800
C699        C  0.16608381  0.86132692  0.36625939    -0.11300
H700        H  0.15919570  0.86950924  0.60014273     0.08400
H701        H  0.21687960  0.81259790  0.66462912     0.05900
H702        H  0.15685220  0.86894499  0.39392795     0.05800
C703        C  0.36835348  0.65856330  0.33041299     0.02800
C704        C  0.35560506  0.66820243  0.62835010    -0.13400
C705        C  0.33288453  0.68901968  0.62888932     0.00300
C706        C  0.32202888  0.69953413  0.66487609    -0.11900
C707        C  0.33418171  0.68963134  0.36693183     0.02800
C708        C  0.35739508  0.66940976  0.36637282    -0.11300
H709        H  0.36356826  0.65974997  0.60040178     0.08400
H710        H  0.30443617  0.71564461  0.66533075     0.05900
H711        H  0.36693258  0.66215250  0.39391783     0.05800
N712        N  0.01080874  0.96991612  0.65510209    -0.37000
N713        N  0.46571175  0.51457607  0.65829248    -0.59300
N714        N  0.01080418  0.55936198  0.66032370    -0.36900
N715        N  0.05585968  0.51471131  0.65937915    -0.57500
C716        C  0.48672433  0.95387527  0.66462683     0.26600
C717        C  0.03468148  0.95390745  0.66511669     0.26600
C718        C  0.48662053  0.57479979  0.67095757     0.26600
C719        C  0.03450199  0.57478602  0.67241979     0.26600
C720        C  0.44948671  0.99113479  0.64747070     0.35300
C721        C  0.44946273  0.53860033  0.64999233     0.35300
C722        C  0.07254055  0.99127192  0.64950191     0.35300
C723        C  0.07251180  0.53880803  0.65263424     0.35300
C724        C  0.49535732  0.92734202  0.68104729    -0.22200
C725        C  0.02569364  0.92735400  0.68134043    -0.22200
C726        C  0.49497454  0.60029357  0.69021612    -0.22200
C727        C  0.02525691  0.60026111  0.69121292    -0.22200
C728        C  0.42287629  0.50028064  0.63191107    -0.23300
C729        C  0.42286888  0.53046466  0.63350452    -0.23300
C730        C  0.09992652  0.50050917  0.63609691    -0.23300
C731        C  0.09988695  0.53070806  0.63803312    -0.23300
C732        C  0.45746062  0.96174166  0.65527769    -0.18600
C733        C  0.06416249  0.96179479  0.65649990    -0.18600
C734        C  0.06410787  0.56754235  0.66370138    -0.18600
C735        C  0.45747089  0.56741326  0.66072438    -0.18600
H736        H  0.48129353  0.90957974  0.69097366     0.14300
H737        H  0.03954526  0.90959794  0.69156809     0.14300
H738        H  0.48075231  0.61733489  0.70183370     0.14300
H739        H  0.03891375  0.61730476  0.70373035     0.14300
H740        H  0.40514519  0.98662837  0.62121272     0.12600
H741        H  0.40512713  0.54474617  0.62434576     0.12600
H742        H  0.11821729  0.98691189  0.62673232     0.12600
H743        H  0.11814283  0.54498691  0.63055244     0.12600
H744        H  0.01100811  0.98899833  0.63809459     0.25800
H745        H  0.01116168  0.54132941  0.64144895     0.25800
C746        C  0.15191353  0.66027113  0.33198514     0.02800
C747        C  0.16359299  0.67037730  0.62929161    -0.13400
C748        C  0.18551272  0.69200617  0.62866445     0.00300
C749        C  0.19676856  0.70283786  0.66406009    -0.11900
C750        C  0.18594478  0.69227438  0.36675131     0.02800
C751        C  0.16345999  0.67120735  0.36739098    -0.11300
H752        H  0.15541974  0.66161971  0.60176594     0.08400
H753        H  0.21393593  0.71939736  0.66357090     0.05900
H754        H  0.15483940  0.66349670  0.39541333     0.05800
N755        N  0.29634680  0.81853612  0.54290929    -0.06500
N756        N  0.29981039  0.83625431  0.57329135    -0.58600
N757        N  0.31745467  0.79773615  0.45236076    -0.06100
N758        N  0.33615867  0.80131184  0.42274929    -0.60700
N759        N  0.29745360  0.81866124  0.45220396    -0.05700
N760        N  0.30219939  0.83697801  0.42264635    -0.58600
N761        N  0.31622906  0.79750879  0.54336258    -0.05400
N762        N  0.33359828  0.80037502  0.57414788    -0.61100
C763        C  0.32308908  0.82462729  0.59233748     0.95700
C764        C  0.32655879  0.82607403  0.40488256     0.95500
N765        N  0.29484692  0.70867799  0.45256136    -0.06600
N766        N  0.29831416  0.69069991  0.42239614    -0.59200
N767        N  0.31495572  0.72863277  0.54338830    -0.04800
N768        N  0.33278465  0.72458966  0.57345455    -0.60400
N769        N  0.29399334  0.70867649  0.54348938    -0.06700
N770        N  0.29704205  0.69066085  0.57375969    -0.59400
N771        N  0.31582362  0.72861759  0.45277800    -0.04400
N772        N  0.33407981  0.72460780  0.42286342    -0.60500
Mn773      Mn  0.31712763  0.76310869  0.49793674     1.18400
C774        C  0.32296783  0.70080287  0.40448009     0.97800
C775        C  0.32141851  0.70078751  0.59188007     0.98500
N776        N  0.22789252  0.82017832  0.45155740    -0.06700
N777        N  0.22437922  0.83851290  0.42172361    -0.63000
N778        N  0.20655873  0.80014615  0.54264227    -0.05500
N779        N  0.18873745  0.80404395  0.57307768    -0.63700
N780        N  0.22751086  0.82011506  0.54246342    -0.06200
N781        N  0.22447715  0.83798682  0.57281572    -0.63300
N782        N  0.20687286  0.80026442  0.45187638    -0.05100
N783        N  0.18861486  0.80463447  0.42232933    -0.64000
Mn784      Mn  0.26232630  0.82038700  0.49714756     1.10700
C785        C  0.19965738  0.82867832  0.40409374     0.99000
C786        C  0.20016975  0.82775939  0.59137928     0.99100
N787        N  0.22503226  0.71011947  0.54276876    -0.06200
N788        N  0.22092723  0.69207800  0.57278287    -0.61600
N789        N  0.20560467  0.73118336  0.45197266    -0.05500
N790        N  0.18763804  0.72798985  0.42188030    -0.58300
N791        N  0.22560442  0.71024773  0.45202098    -0.06800
N792        N  0.22164573  0.69231624  0.42195328    -0.61100
N793        N  0.20497603  0.73098564  0.54284619    -0.05800
N794        N  0.18674372  0.72756559  0.57298650    -0.58300
Mn795      Mn  0.25983993  0.70840308  0.49766971     1.20200
Mn796      Mn  0.20496738  0.76566083  0.49734577     1.10100
Cl797      Cl  0.26105532  0.76439276  0.49742204    -0.86300
C798        C  0.19687125  0.70309674  0.59104971     0.96000
C799        C  0.19782228  0.70360744  0.40370084     0.95800
C800        C  0.13244805  0.61244792  0.35611943    -0.26700
C801        C  0.12838069  0.63759301  0.33268564    -0.14700
C802        C  0.10235630  0.64008337  0.64337352     0.35900
C803        C  0.08272364  0.61638320  0.64219164    -0.26100
C804        C  0.08675830  0.59126540  0.66562580    -0.15300
C805        C  0.11164586  0.58973805  0.35720408     0.37000
N806        N  0.11619552  0.56618410  0.38479689    -0.89600
H807        H  0.15195683  0.61050336  0.37414893     0.18100
H808        H  0.06343295  0.61802981  0.62368249     0.18100
N809        N  0.09457143  0.66638972  0.62221759    -0.88600
H810        H  0.13433850  0.55398374  0.37507941     0.35500
H811        H  0.09818441  0.55203106  0.38649750     0.40600
H812        H  0.10853941  0.68379576  0.62903045     0.40200
H813        H  0.07386698  0.67308259  0.63245267     0.35100
C814        C  0.43804354  0.61571951  0.63789553    -0.26700
C815        C  0.43458126  0.59078291  0.66177866    -0.14700
C816        C  0.41013799  0.58885433  0.35396032     0.35900
C817        C  0.38899119  0.61126508  0.35406789    -0.26100
C818        C  0.39226835  0.63630161  0.33008593    -0.15300
C819        C  0.41784394  0.63898832  0.63934101     0.37000
N820        N  0.42464797  0.66509930  0.61705909    -0.89600
H821        H  0.45721018  0.61752979  0.61884577     0.18100
H822        H  0.36978987  0.60899526  0.37295432     0.18100
N823        N  0.40694374  0.56430895  0.38012163    -0.88600
H824        H  0.44538095  0.67239441  0.62600568     0.35500
H825        H  0.41042610  0.68230324  0.62410681     0.40600
H826        H  0.40601066  0.57232847  0.40895441     0.40200
H827        H  0.38687603  0.55405799  0.37411123     0.35100
C828        C  0.11043363  0.94153201  0.35108611    -0.26700
C829        C  0.08739025  0.93862252  0.65732425    -0.14700
C830        C  0.08675910  0.91369611  0.63233204     0.35900
C831        C  0.10861477  0.89218221  0.63596041    -0.26100
C832        C  0.13196728  0.89529912  0.32927682    -0.15300
C833        C  0.13310110  0.92060552  0.35331926     0.37000
N834        N  0.15757190  0.92538791  0.37917404    -0.89600
H835        H  0.11096318  0.96060010  0.37017155     0.18100
H836        H  0.10752975  0.87296594  0.61719894     0.18100
N837        N  0.06503190  0.90980814  0.60215228    -0.88600
H838        H  0.15497036  0.94502785  0.39477502     0.35500
H839        H  0.17640806  0.92788947  0.36161645     0.40600
H840        H  0.05158576  0.92821419  0.59892955     0.40200
H841        H  0.05160497  0.89215938  0.61044381     0.35100
C842        C  0.41317480  0.89229491  0.63414776    -0.26700
C843        C  0.38895098  0.89582148  0.32637027    -0.14700
C844        C  0.38667700  0.92197642  0.34891285     0.35900
C845        C  0.40986073  0.94229703  0.34783335    -0.26100
C846        C  0.43402926  0.93874856  0.65556797    -0.15300
C847        C  0.43515953  0.91372754  0.63081928     0.37000
N848        N  0.45756413  0.90965721  0.60118817    -0.89600
H849        H  0.41490744  0.87272560  0.61610414     0.18100
H850        H  0.40850613  0.96168226  0.36629644     0.18100
N851        N  0.36102861  0.92924689  0.37207342    -0.88600
H852        H  0.47078478  0.89204250  0.60993797     0.35500
H853        H  0.47107990  0.92804642  0.59808189     0.40600
H854        H  0.34381918  0.91461238  0.36704520     0.40200
H855        H  0.35323007  0.94952536  0.36201146     0.35100
C856        C  0.36684899  0.87175387  0.66196845     0.02800
C857        C  0.35511424  0.85998348  0.96052505    -0.13400
C858        C  0.33514281  0.83659876  0.96212361     0.00300
C859        C  0.32636332  0.82503114  0.99856716    -0.11900
C860        C  0.33762677  0.83674320  0.70013915     0.02800
C861        C  0.35820834  0.85970203  0.69849214    -0.11300
H862        H  0.36150378  0.86902698  0.93216229     0.08400
H863        H  0.31042260  0.80730675  0.99978941     0.05900
H864        H  0.36722960  0.86838237  0.72557130     0.05800
C865        C  0.15542202  0.87242426  0.66362944     0.02800
C866        C  0.16701079  0.86125186  0.96149343    -0.13400
C867        C  0.18886694  0.83960576  0.96187309     0.00300
C868        C  0.19981232  0.82926090  0.99773320    -0.11900
C869        C  0.18849704  0.84010789  0.69996770     0.02800
C870        C  0.16608352  0.86132659  0.69959251    -0.11300
H871        H  0.15919610  0.86950910  0.93347627     0.08400
H872        H  0.21688044  0.81259871  0.99796342     0.05900
H873        H  0.15685200  0.86894460  0.72726113     0.05800
C874        C  0.36835294  0.65856268  0.66374659     0.02800
C875        C  0.35560537  0.66820309  0.96168304    -0.13400
C876        C  0.33288462  0.68902012  0.96222215     0.00300
C877        C  0.32202891  0.69953461  0.99820884    -0.11900
C878        C  0.33418130  0.68963091  0.70026545     0.02800
C879        C  0.35739456  0.66940918  0.69970642    -0.11300
H880        H  0.36356854  0.65975049  0.93373480     0.08400
H881        H  0.30443601  0.71564489  0.99866337     0.05900
H882        H  0.36693202  0.66215189  0.72725143     0.05800
N883        N  0.01080846  0.96991620  0.98843447    -0.37000
N884        N  0.46571148  0.51457674  0.99162588    -0.59300
N885        N  0.01080449  0.55936227  0.99365642    -0.36900
N886        N  0.05585965  0.51471124  0.99271108    -0.57500
C887        C  0.48672377  0.95387549  0.99795898     0.26600
C888        C  0.03468121  0.95390717  0.99844809     0.26600
C889        C  0.48662071  0.57480031  0.00429097     0.26600
C890        C  0.03450246  0.57478610  0.00575259     0.26600
C891        C  0.44948622  0.99113552  0.98080407     0.35300
C892        C  0.44946249  0.53860108  0.98332619     0.35300
C893        C  0.07254041  0.99127161  0.98283353     0.35300
C894        C  0.07251200  0.53880789  0.98596664     0.35300
C895        C  0.49535655  0.92734204  0.01437899    -0.22200
C896        C  0.02569337  0.92735353  0.01467131    -0.22200
C897        C  0.49497492  0.60029402  0.02354945    -0.22200
C898        C  0.02525761  0.60026129  0.02454560    -0.22200
C899        C  0.42287554  0.50028155  0.96524557    -0.23300
C900        C  0.42286835  0.53046556  0.96683905    -0.23300
C901        C  0.09992641  0.50050892  0.96942881    -0.23300
C902        C  0.09988712  0.53070781  0.97136554    -0.23300
C903        C  0.45746003  0.96174230  0.98861059    -0.18600
C904        C  0.06416222  0.96179447  0.98983123    -0.18600
C905        C  0.06410826  0.56754220  0.99703415    -0.18600
C906        C  0.45747098  0.56741397  0.99405796    -0.18600
H907        H  0.48129257  0.90957994  0.02430548     0.14300
H908        H  0.03954495  0.90959721  0.02489823     0.14300
H909        H  0.48075283  0.61733547  0.03516702     0.14300
H910        H  0.03891456  0.61730483  0.03706310     0.14300
H911        H  0.40514416  0.98662966  0.95454734     0.12600
H912        H  0.40512658  0.54474720  0.95768068     0.12600
H913        H  0.11821726  0.98691142  0.96006447     0.12600
H914        H  0.11814317  0.54498658  0.96388528     0.12600
H915        H  0.01100774  0.98899874  0.97142746     0.25800
H916        H  0.01116181  0.54132980  0.97478191     0.25800
C917        C  0.15191338  0.66027109  0.66531895     0.02800
C918        C  0.16359292  0.67037756  0.96262540    -0.13400
C919        C  0.18551247  0.69200659  0.96199805     0.00300
C920        C  0.19676855  0.70283822  0.99739358    -0.11900
C921        C  0.18594426  0.69227482  0.70008484     0.02800
C922        C  0.16345959  0.67120770  0.70072467    -0.11300
H923        H  0.15541961  0.66161997  0.93509977     0.08400
H924        H  0.21393582  0.71939783  0.99690427     0.05900
H925        H  0.15483896  0.66349724  0.72874710     0.05800
N926        N  0.29634667  0.81853649  0.87624241    -0.06500
N927        N  0.29981017  0.83625461  0.90662458    -0.58600
N928        N  0.31745436  0.79773628  0.78569374    -0.06100
N929        N  0.33615829  0.80131193  0.75608218    -0.60700
N930        N  0.29745330  0.81866137  0.78553700    -0.05700
N931        N  0.30219904  0.83697812  0.75597938    -0.58600
N932        N  0.31622890  0.79750912  0.87669576    -0.05400
N933        N  0.33359798  0.80037525  0.90748125    -0.61100
C934        C  0.32308872  0.82462749  0.92567089     0.95700
C935        C  0.32655837  0.82607412  0.73821545     0.95500
N936        N  0.29484644  0.70867818  0.78589466    -0.06600
N937        N  0.29831376  0.69069983  0.75572974    -0.59200
N938        N  0.31495542  0.72863313  0.87672132    -0.04800
N939        N  0.33278461  0.72458991  0.90678725    -0.60400
N940        N  0.29399295  0.70867696  0.87682267    -0.06700
N941        N  0.29704179  0.69066133  0.90709296    -0.59400
N942        N  0.31582318  0.72861774  0.78611113    -0.04400
N943        N  0.33407946  0.72460766  0.75619670    -0.60500
Mn944      Mn  0.31712729  0.76310895  0.83126981     1.18400
C945        C  0.32296752  0.70080256  0.73781370     0.97800
C946        C  0.32141851  0.70078780  0.92521290     0.98500
N947        N  0.22789238  0.82017840  0.78489051    -0.06700
N948        N  0.22437928  0.83851269  0.75505635    -0.63000
N949        N  0.20655860  0.80014657  0.87597576    -0.05500
N950        N  0.18873767  0.80404424  0.90641158    -0.63700
N951        N  0.22751080  0.82011541  0.87579673    -0.06200
N952        N  0.22447752  0.83798696  0.90614933    -0.63300
N953        N  0.20687258  0.80026467  0.78520980    -0.05100
N954        N  0.18861466  0.80463455  0.75566262    -0.64000
Mn955      Mn  0.26232612  0.82038721  0.83048069     1.10700
C956        C  0.19965739  0.82867812  0.73742659     0.99000
C957        C  0.20017032  0.82775946  0.92471330     0.99100
N958        N  0.22503188  0.71011993  0.87610230    -0.06200
N959        N  0.22092687  0.69207844  0.90611639    -0.61600
N960        N  0.20560413  0.73118378  0.78530623    -0.05500
N961        N  0.18763750  0.72799031  0.75521385    -0.58300
N962        N  0.22560391  0.71024817  0.78535447    -0.06800
N963        N  0.22164524  0.69231674  0.75528672    -0.61100
N964        N  0.20497561  0.73098604  0.87617973    -0.05800
N965        N  0.18674323  0.72756590  0.90631996    -0.58300
Mn966      Mn  0.25983947  0.70840346  0.83100313     1.20200
Mn967      Mn  0.20496697  0.76566123  0.83067933     1.10100
Cl968      Cl  0.26105492  0.76439304  0.83075550    -0.86300
C969        C  0.19687082  0.70309708  0.92438317     0.96000
C970        C  0.19782182  0.70360798  0.73703428     0.95800
C971        C  0.13244783  0.61244807  0.68945363    -0.26700
C972        C  0.12838052  0.63759301  0.66601961    -0.14700
C973        C  0.10235672  0.64008327  0.97670692     0.35900
C974        C  0.08272423  0.61638299  0.97552461    -0.26100
C975        C  0.08675877  0.59126516  0.99895874    -0.15300
C976        C  0.11164560  0.58973825  0.69053839     0.37000
N977        N  0.11619524  0.56618440  0.71813132    -0.89600
H978        H  0.15195658  0.61050361  0.70748319     0.18100
H979        H  0.06343369  0.61802956  0.95701515     0.18100
N980        N  0.09457186  0.66638960  0.95555094    -0.88600
H981        H  0.13433814  0.55398398  0.70841385     0.35500
H982        H  0.09818409  0.55203147  0.71983210     0.40600
H983        H  0.10853937  0.68379575  0.96236440     0.40200
H984        H  0.07386709  0.67308216  0.96578546     0.35100
C985        C  0.43804366  0.61572003  0.97122839    -0.26700
C986        C  0.43458156  0.59078381  0.99511227    -0.14700
C987        C  0.41013757  0.58885361  0.68729331     0.35900
C988        C  0.38899075  0.61126434  0.68740112    -0.26100
C989        C  0.39226789  0.63630102  0.66341943    -0.15300
C990        C  0.41784420  0.63898895  0.97267361     0.37000
N991        N  0.42464810  0.66509956  0.95039078    -0.89600
H992        H  0.45721008  0.61752994  0.95217813     0.18100
H993        H  0.36978942  0.60899439  0.70628753     0.18100
N994        N  0.40694331  0.56430809  0.71345437    -0.88600
H995        H  0.44538126  0.67239474  0.95933662     0.35500
H996        H  0.41042637  0.68230370  0.95743831     0.40600
H997        H  0.40601010  0.57232753  0.74228734     0.40200
H998        H  0.38687573  0.55405716  0.70744378     0.35100
C999        C  0.11043344  0.94153187  0.68442011    -0.26700
C1000       C  0.08739003  0.93862222  0.99065611    -0.14700
C1001       C  0.08675932  0.91369577  0.96566398     0.35900
C1002       C  0.10861505  0.89218197  0.96929294    -0.26100
C1003       C  0.13196685  0.89529894  0.66261040    -0.15300
C1004       C  0.13310084  0.92060528  0.68665298     0.37000
N1005       N  0.15757171  0.92538749  0.71250768    -0.89600
H1006       H  0.11096314  0.96059992  0.70350564     0.18100
H1007       H  0.10753035  0.87296566  0.95053150     0.18100
N1008       N  0.06503248  0.90980758  0.93548379    -0.88600
H1009       H  0.15497026  0.94502750  0.72810874     0.35500
H1010       H  0.17640782  0.92788900  0.69495006     0.40600
H1011       H  0.05158609  0.92821355  0.93226097     0.40200
H1012       H  0.05160572  0.89215875  0.94377502     0.35100
C1013       C  0.41317379  0.89229601  0.96748011    -0.26700
C1014       C  0.38895073  0.89582143  0.65970295    -0.14700
C1015       C  0.38667671  0.92197637  0.68224551     0.35900
C1016       C  0.40986036  0.94229711  0.68116590    -0.26100
C1017       C  0.43402857  0.93874935  0.98890090    -0.15300
C1018       C  0.43515849  0.91372862  0.96415163     0.37000
N1019       N  0.45756278  0.90965850  0.93452006    -0.89600
H1020       H  0.41490630  0.87272686  0.94943617     0.18100
H1021       H  0.40850568  0.96168238  0.69962890     0.18100
N1022       N  0.36102833  0.92924678  0.70540615    -0.88600
H1023       H  0.47078347  0.89204359  0.94326938     0.35500
H1024       H  0.47107855  0.92804763  0.93141380     0.40600
H1025       H  0.34381891  0.91461216  0.70037806     0.40200
H1026       H  0.35322973  0.94952512  0.69534413     0.35100
C1027       C  0.86684849  0.37175491  0.99530142     0.02800
C1028       C  0.85511490  0.35998332  0.29385863    -0.13400
C1029       C  0.83514346  0.33659861  0.29545698     0.00300
C1030       C  0.82636374  0.32503100  0.33190043    -0.11900
C1031       C  0.83762685  0.33674385  0.03347228     0.02800
C1032       C  0.85820816  0.35970292  0.03182516    -0.11300
H1033       H  0.86150459  0.36902681  0.26549595     0.08400
H1034       H  0.81042297  0.30730663  0.33312255     0.05900
H1035       H  0.86722945  0.36838332  0.05890424     0.05800
C1036       C  0.65542217  0.37242467  0.99696286     0.02800
C1037       C  0.66701125  0.36125244  0.29482641    -0.13400
C1038       C  0.68886693  0.33960591  0.29520606     0.00300
C1039       C  0.69981184  0.32926051  0.33106615    -0.11900
C1040       C  0.68849738  0.34010874  0.03330141     0.02800
C1041       C  0.66608361  0.36132716  0.03292603    -0.11300
H1042       H  0.65919681  0.36951000  0.26680929     0.08400
H1043       H  0.71687959  0.31259794  0.33129635     0.05900
H1044       H  0.65685187  0.36894505  0.06059458     0.05800
C1045       C  0.86835343  0.15856413  0.99707923     0.02800
C1046       C  0.85560503  0.16820289  0.29501592    -0.13400
C1047       C  0.83288450  0.18902010  0.29555515     0.00300
C1048       C  0.82202888  0.19953459  0.33154190    -0.11900
C1049       C  0.83418126  0.18963189  0.03359795     0.02800
C1050       C  0.85739499  0.16941071  0.03303902    -0.11300
H1051       H  0.86356815  0.15975033  0.26706762     0.08400
H1052       H  0.80443612  0.21564503  0.33199649     0.05900
H1053       H  0.86693266  0.16215379  0.06058409     0.05800
N1054       N  0.51080919  0.46991617  0.32176815    -0.37000
N1055       N  0.96571163  0.01457641  0.32495980    -0.59300
N1056       N  0.51080422  0.05936178  0.32699069    -0.36900
N1057       N  0.55585983  0.01471116  0.32604642    -0.57500
C1058       C  0.98672410  0.45387563  0.33129325     0.26600
C1059       C  0.53468201  0.45390745  0.33178216     0.26600
C1060       C  0.98662044  0.07480015  0.33762432     0.26600
C1061       C  0.53450199  0.07478588  0.33908673     0.26600
C1062       C  0.94948650  0.49113535  0.31413771     0.35300
C1063       C  0.94946249  0.03860059  0.31665971     0.35300
C1064       C  0.57254090  0.49127198  0.31616699     0.35300
C1065       C  0.57251183  0.03880793  0.31930126     0.35300
C1066       C  0.99535705  0.42734237  0.34771370    -0.22200
C1067       C  0.52569433  0.42735383  0.34800565    -0.22200
C1068       C  0.99497448  0.10029411  0.35688242    -0.22200
C1069       C  0.52525681  0.10026112  0.35787947    -0.22200
C1070       C  0.92287593  0.00028078  0.29857931    -0.23300
C1071       C  0.92286849  0.03046479  0.30017248    -0.23300
C1072       C  0.59992652  0.00050911  0.30276356    -0.23300
C1073       C  0.59988688  0.03070802  0.30469977    -0.23300
C1074       C  0.95746035  0.46174221  0.32194466    -0.18600
C1075       C  0.56416293  0.46179486  0.32316510    -0.18600
C1076       C  0.56410790  0.06754226  0.33036839    -0.18600
C1077       C  0.95747078  0.06741364  0.32739115    -0.18600
H1078       H  0.98129320  0.40958027  0.35764051     0.14300
H1079       H  0.53954605  0.40959770  0.35823284     0.14300
H1080       H  0.98075225  0.11733560  0.36849957     0.14300
H1081       H  0.53891357  0.11730486  0.37039683     0.14300
H1082       H  0.90514450  0.48662924  0.28788093     0.12600
H1083       H  0.90512666  0.04474623  0.29101383     0.12600
H1084       H  0.61821754  0.48691197  0.29339703     0.12600
H1085       H  0.61814264  0.04498693  0.29721878     0.12600
H1086       H  0.51100842  0.48899865  0.30476081     0.25800
H1087       H  0.51116179  0.04132894  0.30811609     0.25800
C1088       C  0.65191294  0.16027151  0.99865280     0.02800
C1089       C  0.66359271  0.17037782  0.29595777    -0.13400
C1090       C  0.68551249  0.19200665  0.29533078     0.00300
C1091       C  0.69676857  0.20283804  0.33072647    -0.11900
C1092       C  0.68594419  0.19227534  0.03341798     0.02800
C1093       C  0.66345959  0.17120812  0.03405830    -0.11300
H1094       H  0.65541939  0.16162046  0.26843202     0.08400
H1095       H  0.71393596  0.21939752  0.33023736     0.05900
H1096       H  0.65483934  0.16349762  0.06208091     0.05800
N1097       N  0.79634715  0.31853678  0.20957576    -0.06500
N1098       N  0.79981080  0.33625484  0.23995796    -0.58600
N1099       N  0.81745468  0.29773688  0.11902699    -0.06100
N1100       N  0.83615850  0.30131255  0.08941530    -0.60700
N1101       N  0.79745365  0.31866201  0.11887039    -0.05700
N1102       N  0.80219930  0.33697879  0.08931275    -0.58600
N1103       N  0.81622928  0.29750932  0.21002899    -0.05400
N1104       N  0.83359843  0.30037530  0.24081441    -0.61100
C1105       C  0.82308935  0.32462757  0.25900415     0.95700
C1106       C  0.82655856  0.32607477  0.07154865     0.95500
N1107       N  0.79484660  0.20867871  0.11922751    -0.06600
N1108       N  0.79831368  0.19070066  0.08906222    -0.59200
N1109       N  0.81495561  0.22863330  0.21005435    -0.04800
N1110       N  0.83278462  0.22459008  0.24012046    -0.60400
N1111       N  0.79399317  0.20867708  0.21015550    -0.06700
N1112       N  0.79704193  0.19066137  0.24042571    -0.59400
N1113       N  0.81582338  0.22861823  0.11944409    -0.04400
N1114       N  0.83407949  0.22460840  0.08952942    -0.60500
Mn1115     Mn  0.81712760  0.26310930  0.16460293     1.18400
C1116       C  0.82296735  0.20080354  0.07114610     0.97800
C1117       C  0.82141849  0.20078791  0.25854594     0.98500
N1118       N  0.72789269  0.32017906  0.11822409    -0.06700
N1119       N  0.72437946  0.33851359  0.08839022    -0.63000
N1120       N  0.70655901  0.30014680  0.20930899    -0.05500
N1121       N  0.68873792  0.30404445  0.23974463    -0.63700
N1122       N  0.72751114  0.32011570  0.20913005    -0.06200
N1123       N  0.72447762  0.33798733  0.23948251    -0.63300
N1124       N  0.70687298  0.30026524  0.11854316    -0.05100
N1125       N  0.68861501  0.30463526  0.08899608    -0.64000
Mn1126     Mn  0.76232650  0.32038769  0.16381412     1.10700
C1127       C  0.69965760  0.32867903  0.07076038     0.99000
C1128       C  0.70017039  0.32775976  0.25804631     0.99100
N1129       N  0.72503212  0.21012022  0.20943527    -0.06200
N1130       N  0.72092704  0.19207868  0.23944928    -0.61600
N1131       N  0.70560447  0.23118433  0.11863919    -0.05500
N1132       N  0.68763787  0.22799101  0.08854676    -0.58300
N1133       N  0.72560415  0.21024864  0.11868742    -0.06800
N1134       N  0.72164543  0.19231726  0.08861962    -0.61100
N1135       N  0.70497591  0.23098640  0.20951277    -0.05800
N1136       N  0.68674353  0.22756626  0.23965302    -0.58300
Mn1137     Mn  0.75983970  0.20840383  0.16433605     1.20200
Mn1138     Mn  0.70496737  0.26566164  0.16401246     1.10100
Cl1139     Cl  0.76105529  0.26439346  0.16408862    -0.86300
C1140       C  0.69687105  0.20309737  0.25771612     0.96000
C1141       C  0.69782209  0.20360865  0.07036715     0.95800
C1142       C  0.63244750  0.11244844  0.02278815    -0.26700
C1143       C  0.62838015  0.13759329  0.99935388    -0.14700
C1144       C  0.60235611  0.14008338  0.31003991     0.35900
C1145       C  0.58272348  0.11638314  0.30885828    -0.26100
C1146       C  0.58675829  0.09126537  0.33229250    -0.15300
C1147       C  0.61164538  0.08973844  0.02387289     0.37000
N1148       N  0.61619503  0.06618467  0.05146593    -0.89600
H1149       H  0.65195621  0.11050411  0.04081781     0.18100
H1150       H  0.56343269  0.11802967  0.29034932     0.18100
N1151       N  0.59457100  0.16638970  0.28888409    -0.88600
H1152       H  0.63433818  0.05398455  0.04174890     0.35500
H1153       H  0.59818401  0.05203134  0.05316619     0.40600
H1154       H  0.60853899  0.18379578  0.29569664     0.40200
H1155       H  0.57386658  0.17308254  0.29911950     0.35100
C1156       C  0.93804327  0.11571958  0.30456118    -0.26700
C1157       C  0.93458119  0.09078337  0.32844511    -0.14700
C1158       C  0.91013807  0.08885538  0.02062737     0.35900
C1159       C  0.88899139  0.11126622  0.02073484    -0.26100
C1160       C  0.89226836  0.13630242  0.99675223    -0.15300
C1161       C  0.91784374  0.13898848  0.30600634     0.37000
N1162       N  0.92464766  0.16509910  0.28372359    -0.89600
H1163       H  0.95720974  0.11752953  0.28551106     0.18100
H1164       H  0.86979026  0.10899667  0.03962170     0.18100
N1165       N  0.90694394  0.06431032  0.04678923    -0.88600
H1166       H  0.94538076  0.17239426  0.29266954     0.35500
H1167       H  0.91042590  0.18230325  0.29077111     0.40600
H1168       H  0.90601125  0.07233016  0.07562176     0.40200
H1169       H  0.88687600  0.05405942  0.04077942     0.35100
C1170       C  0.61043272  0.44153183  0.01775243    -0.26700
C1171       C  0.58739080  0.43862275  0.32398966    -0.14700
C1172       C  0.58675979  0.41369614  0.29899776     0.35900
C1173       C  0.60861554  0.39218242  0.30262652    -0.26100
C1174       C  0.63196676  0.39529903  0.99594342    -0.15300
C1175       C  0.63310019  0.42060539  0.01998605     0.37000
N1176       N  0.65757055  0.42538775  0.04584158    -0.89600
H1177       H  0.61096196  0.46059986  0.03683798     0.18100
H1178       H  0.60753063  0.37296595  0.28386538     0.18100
N1179       N  0.56503253  0.40980767  0.26881814    -0.88600
H1180       H  0.65496867  0.44502770  0.06144261     0.35500
H1181       H  0.67640700  0.42788941  0.02828461     0.40600
H1182       H  0.55158621  0.42821343  0.26559528     0.40200
H1183       H  0.55160579  0.39215874  0.27711004     0.35100
C1184       C  0.91317444  0.39229583  0.30081421    -0.26700
C1185       C  0.88895005  0.39582262  0.99303583    -0.14700
C1186       C  0.88667641  0.42197722  0.01557925     0.35900
C1187       C  0.90986016  0.44229784  0.01449977    -0.26100
C1188       C  0.93402902  0.43874920  0.32223505    -0.15300
C1189       C  0.93515910  0.41372848  0.29748581     0.37000
N1190       N  0.95756340  0.40965851  0.26785418    -0.89600
H1191       H  0.91490702  0.37272672  0.28277022     0.18100
H1192       H  0.90850583  0.46168282  0.03296337     0.18100
N1193       N  0.86102833  0.42924738  0.03874063    -0.88600
H1194       H  0.97078418  0.39204368  0.27660337     0.35500
H1195       H  0.97107904  0.42804770  0.26474789     0.40600
H1196       H  0.84381878  0.41461307  0.03371224     0.40200
H1197       H  0.85322979  0.44952608  0.02867951     0.35100
C1198       C  0.86684894  0.37175441  0.32863520     0.02800
C1199       C  0.85511466  0.35998298  0.62719141    -0.13400
C1200       C  0.83514283  0.33659862  0.62878999     0.00300
C1201       C  0.82636303  0.32503125  0.66523352    -0.11900
C1202       C  0.83762718  0.33674336  0.36680591     0.02800
C1203       C  0.85820849  0.35970242  0.36515888    -0.11300
H1204       H  0.86150443  0.36902628  0.59882864     0.08400
H1205       H  0.81042203  0.30730710  0.66645579     0.05900
H1206       H  0.86722969  0.36838285  0.39223801     0.05800
C1207       C  0.65542272  0.37242496  0.33029594     0.02800
C1208       C  0.66701091  0.36125239  0.62815964    -0.13400
C1209       C  0.68886668  0.33960591  0.62853905     0.00300
C1210       C  0.69981187  0.32926062  0.66439906    -0.11900
C1211       C  0.68849718  0.34010835  0.36663458     0.02800
C1212       C  0.66608394  0.36132732  0.36625914    -0.11300
H1213       H  0.65919629  0.36950993  0.60014261     0.08400
H1214       H  0.71687969  0.31259812  0.66462916     0.05900
H1215       H  0.65685240  0.36894551  0.39392767     0.05800
C1216       C  0.86835303  0.15856331  0.33041239     0.02800
C1217       C  0.85560483  0.16820282  0.62834979    -0.13400
C1218       C  0.83288424  0.18901998  0.62888898     0.00300
C1219       C  0.82202844  0.19953427  0.66487575    -0.11900
C1220       C  0.83418140  0.18963155  0.36693127     0.02800
C1221       C  0.85739476  0.16940994  0.36637224    -0.11300
H1222       H  0.86356808  0.15975038  0.60040149     0.08400
H1223       H  0.80443564  0.21564465  0.66533039     0.05900
H1224       H  0.86693233  0.16215278  0.39391723     0.05800
N1225       N  0.51080884  0.46991576  0.65510184    -0.37000
N1226       N  0.96571162  0.01457650  0.65829252    -0.59300
N1227       N  0.51080373  0.05936222  0.66032427    -0.36900
N1228       N  0.55585943  0.01471175  0.65938034    -0.57500
C1229       C  0.98672422  0.45387519  0.66462585     0.26600
C1230       C  0.53468160  0.45390715  0.66511627     0.26600
C1231       C  0.98662023  0.07480019  0.67095816     0.26600
C1232       C  0.53450140  0.07478647  0.67242042     0.26600
C1233       C  0.94948669  0.49113495  0.64747024     0.35300
C1234       C  0.94946262  0.03860074  0.64999228     0.35300
C1235       C  0.57254057  0.49127162  0.64950103     0.35300
C1236       C  0.57251141  0.03880856  0.65263538     0.35300
C1237       C  0.99535709  0.42734188  0.68104623    -0.22200
C1238       C  0.52569384  0.42735355  0.68133980    -0.22200
C1239       C  0.99497413  0.10029392  0.69021686    -0.22200
C1240       C  0.52525610  0.10026161  0.69121316    -0.22200
C1241       C  0.92287623  0.00028102  0.63191098    -0.23300
C1242       C  0.92286884  0.03046503  0.63350431    -0.23300
C1243       C  0.59992628  0.00050983  0.63609792    -0.23300
C1244       C  0.59988656  0.03070871  0.63803423    -0.23300
C1245       C  0.95746051  0.46174176  0.65527701    -0.18600
C1246       C  0.56416255  0.46179454  0.65649937    -0.18600
C1247       C  0.56410734  0.06754290  0.66370233    -0.18600
C1248       C  0.95747066  0.06741369  0.66072449    -0.18600
H1249       H  0.98129321  0.40957967  0.69097262     0.14300
H1250       H  0.53954550  0.40959746  0.69156726     0.14300
H1251       H  0.98075185  0.11733530  0.70183425     0.14300
H1252       H  0.53891276  0.11730542  0.70373056     0.14300
H1253       H  0.90514500  0.48662891  0.62121253     0.12600
H1254       H  0.90512712  0.04474653  0.62434539     0.12600
H1255       H  0.61821720  0.48691141  0.62673107     0.12600
H1256       H  0.61814236  0.04498767  0.63055354     0.12600
H1257       H  0.51100816  0.48899820  0.63809423     0.25800
H1258       H  0.51116141  0.04132957  0.64144980     0.25800
C1259       C  0.65191327  0.16027130  0.33198510     0.02800
C1260       C  0.66359224  0.17037805  0.62929155    -0.13400
C1261       C  0.68551231  0.19200659  0.62866418     0.00300
C1262       C  0.69676851  0.20283814  0.66405973    -0.11900
C1263       C  0.68594442  0.19227473  0.36675116     0.02800
C1264       C  0.66345974  0.17120759  0.36739091    -0.11300
H1265       H  0.65541874  0.16162061  0.60176593     0.08400
H1266       H  0.71393606  0.21939745  0.66357038     0.05900
H1267       H  0.65483927  0.16349690  0.39541330     0.05800
N1268       N  0.79634668  0.31853645  0.54290887    -0.06500
N1269       N  0.79981014  0.33625451  0.57329108    -0.58600
N1270       N  0.81745457  0.29773642  0.45236038    -0.06100
N1271       N  0.83615858  0.30131212  0.42274893    -0.60700
N1272       N  0.79745351  0.31866151  0.45220359    -0.05700
N1273       N  0.80219935  0.33697832  0.42264605    -0.58600
N1274       N  0.81622893  0.29750910  0.54336218    -0.05400
N1275       N  0.83359802  0.30037521  0.57414762    -0.61100
C1276       C  0.82308871  0.32462739  0.59233733     0.95700
C1277       C  0.82655873  0.32607434  0.40488222     0.95500
N1278       N  0.79484674  0.20867827  0.45256097    -0.06600
N1279       N  0.79831390  0.19070022  0.42239568    -0.59200
N1280       N  0.81495547  0.22863309  0.54338791    -0.04800
N1281       N  0.83278442  0.22458995  0.57345413    -0.60400
N1282       N  0.79399308  0.20867683  0.54348903    -0.06700
N1283       N  0.79704178  0.19066119  0.57375934    -0.59400
N1284       N  0.81582346  0.22861785  0.45277754    -0.04400
N1285       N  0.83407958  0.22460808  0.42286285    -0.60500
Mn1286     Mn  0.81712746  0.26310899  0.49793633     1.18400
C1287       C  0.82296753  0.20080317  0.40447952     0.97800
C1288       C  0.82141826  0.20078783  0.59187969     0.98500
N1289       N  0.72789251  0.32017860  0.45155712    -0.06700
N1290       N  0.72437920  0.33851317  0.42172332    -0.63000
N1291       N  0.70655871  0.30014652  0.54264205    -0.05500
N1292       N  0.68873755  0.30404432  0.57307761    -0.63700
N1293       N  0.72751083  0.32011543  0.54246304    -0.06200
N1294       N  0.72447725  0.33798719  0.57281535    -0.63300
N1295       N  0.70687281  0.30026477  0.45187622    -0.05100
N1296       N  0.68861476  0.30463484  0.42232923    -0.64000
Mn1297     Mn  0.76232624  0.32038729  0.49714716     1.10700
C1298       C  0.69965731  0.32867864  0.40409357     0.99000
C1299       C  0.70016996  0.32775974  0.59137915     0.99100
N1300       N  0.72503203  0.21011987  0.54276856    -0.06200
N1301       N  0.72092684  0.19207833  0.57278257    -0.61600
N1302       N  0.70560453  0.23118373  0.45197240    -0.05500
N1303       N  0.68763783  0.22799021  0.42188012    -0.58300
N1304       N  0.72560423  0.21024806  0.45202070    -0.06800
N1305       N  0.72164545  0.19231653  0.42195306    -0.61100
N1306       N  0.70497583  0.23098605  0.54284596    -0.05800
N1307       N  0.68674337  0.22756594  0.57298612    -0.58300
Mn1308     Mn  0.75983971  0.20840344  0.49766942     1.20200
Mn1309     Mn  0.70496728  0.26566122  0.49734556     1.10100
Cl1310     Cl  0.76105519  0.26439311  0.49742172    -0.86300
C1311       C  0.69687079  0.20309703  0.59104930     0.96000
C1312       C  0.69782201  0.20360778  0.40370065     0.95800
C1313       C  0.63244801  0.11244809  0.35611966    -0.26700
C1314       C  0.62838050  0.13759308  0.33268575    -0.14700
C1315       C  0.60235552  0.14008413  0.64337413     0.35900
C1316       C  0.58272288  0.11638389  0.64219245    -0.26100
C1317       C  0.58675764  0.09126611  0.66562669    -0.15300
C1318       C  0.61164579  0.08973825  0.35720475     0.37000
N1319       N  0.61619562  0.06618447  0.38479774    -0.89600
H1320       H  0.65195688  0.11050361  0.37414899     0.18100
H1321       H  0.56343217  0.11803041  0.62368333     0.18100
N1322       N  0.59457052  0.16639043  0.62221820    -0.88600
H1323       H  0.63433846  0.05398409  0.37508022     0.35500
H1324       H  0.59818444  0.05203144  0.38649873     0.40600
H1325       H  0.60853857  0.18379653  0.62903087     0.40200
H1326       H  0.57386616  0.17308331  0.63245350     0.35100
C1327       C  0.93804325  0.11571982  0.63789528    -0.26700
C1328       C  0.93458101  0.09078332  0.66177860    -0.14700
C1329       C  0.91013778  0.08885456  0.35396026     0.35900
C1330       C  0.88899098  0.11126529  0.35406771    -0.26100
C1331       C  0.89226793  0.13630158  0.33008527    -0.15300
C1332       C  0.91784367  0.13898865  0.63934066     0.37000
N1333       N  0.92464769  0.16509952  0.61705851    -0.89600
H1334       H  0.95720988  0.11753001  0.61884547     0.18100
H1335       H  0.86978981  0.10899564  0.37295450     0.18100
N1336       N  0.90694372  0.06430951  0.38012219    -0.88600
H1337       H  0.94538057  0.17239466  0.62600497     0.35500
H1338       H  0.91042570  0.18230357  0.62410610     0.40600
H1339       H  0.90601083  0.07232947  0.40895488     0.40200
H1340       H  0.88687600  0.05405851  0.37411233     0.35100
C1341       C  0.61043396  0.44153247  0.35108554    -0.26700
C1342       C  0.58739035  0.43862243  0.65732394    -0.14700
C1343       C  0.58675936  0.41369595  0.63233183     0.35900
C1344       C  0.60861514  0.39218225  0.63596036    -0.26100
C1345       C  0.63196756  0.39529952  0.32927653    -0.15300
C1346       C  0.63310147  0.42060603  0.35331872     0.37000
N1347       N  0.65757228  0.42538851  0.37917346    -0.89600
H1348       H  0.61096353  0.46060063  0.37017086     0.18100
H1349       H  0.60753022  0.37296586  0.61719910     0.18100
N1350       N  0.56503222  0.40980772  0.60215203    -0.88600
H1351       H  0.65497078  0.44502847  0.39477426     0.35500
H1352       H  0.67640852  0.42788997  0.36161580     0.40600
H1353       H  0.55158592  0.42821364  0.59892920     0.40200
H1354       H  0.55160546  0.39215892  0.61044357     0.35100
C1355       C  0.91317453  0.39229521  0.63414676    -0.26700
C1356       C  0.88895052  0.39582212  0.32636971    -0.14700
C1357       C  0.88667663  0.42197684  0.34891280     0.35900
C1358       C  0.90986032  0.44229754  0.34783340    -0.26100
C1359       C  0.93402911  0.43874874  0.65556726    -0.15300
C1360       C  0.93515923  0.41372784  0.63081828     0.37000
N1361       N  0.95756362  0.40965771  0.60118683    -0.89600
H1362       H  0.91490710  0.37272599  0.61610296     0.18100
H1363       H  0.90850577  0.46168263  0.36629676     0.18100
N1364       N  0.86102832  0.42924706  0.37207369    -0.88600
H1365       H  0.97078443  0.39204289  0.60993636     0.35500
H1366       H  0.97107920  0.42804685  0.59808047     0.40600
H1367       H  0.84381879  0.41461255  0.36704519     0.40200
H1368       H  0.85322980  0.44952556  0.36201225     0.35100
C1369       C  0.86684894  0.37175400  0.66196785     0.02800
C1370       C  0.85511436  0.35998379  0.96052490    -0.13400
C1371       C  0.83514282  0.33659916  0.96212337     0.00300
C1372       C  0.82636322  0.32503154  0.99856686    -0.11900
C1373       C  0.83762678  0.33674346  0.70013887     0.02800
C1374       C  0.85820845  0.35970220  0.69849163    -0.11300
H1375       H  0.86150404  0.36902721  0.93216215     0.08400
H1376       H  0.81042247  0.30730717  0.99978905     0.05900
H1377       H  0.86722981  0.36838260  0.72557069     0.05800
C1378       C  0.65542250  0.37242484  0.66362930     0.02800
C1379       C  0.66701078  0.36125225  0.96149332    -0.13400
C1380       C  0.68886688  0.33960614  0.96187287     0.00300
C1381       C  0.69981223  0.32926116  0.99773295    -0.11900
C1382       C  0.68849733  0.34010840  0.69996758     0.02800
C1383       C  0.66608393  0.36132719  0.69959238    -0.11300
H1384       H  0.65919609  0.36950959  0.93347622     0.08400
H1385       H  0.71688031  0.31259893  0.99796312     0.05900
H1386       H  0.65685242  0.36894524  0.72726100     0.05800
C1387       C  0.86835272  0.15856312  0.66374629     0.02800
C1388       C  0.85560531  0.16820347  0.96168272    -0.13400
C1389       C  0.83288440  0.18902030  0.96222187     0.00300
C1390       C  0.82202853  0.19953462  0.99820858    -0.11900
C1391       C  0.83418090  0.18963116  0.70026513     0.02800
C1392       C  0.85739430  0.16940959  0.69970613    -0.11300
H1393       H  0.86356852  0.15975096  0.93373444     0.08400
H1394       H  0.80443551  0.21564475  0.99866312     0.05900
H1395       H  0.86693181  0.16215234  0.72725113     0.05800
N1396       N  0.51080851  0.46991611  0.98843400    -0.37000
N1397       N  0.96571141  0.01457688  0.99162612    -0.59300
N1398       N  0.51080409  0.05936208  0.99365781    -0.36900
N1399       N  0.55585945  0.01471118  0.99271278    -0.57500
C1400       C  0.98672384  0.45387573  0.99795887     0.26600
C1401       C  0.53468127  0.45390720  0.99844777     0.26600
C1402       C  0.98662057  0.07480047  0.00429108     0.26600
C1403       C  0.53450195  0.07478597  0.00575405     0.26600
C1404       C  0.94948626  0.49113575  0.98080409     0.35300
C1405       C  0.94946233  0.03860119  0.98332648     0.35300
C1406       C  0.57254041  0.49127163  0.98283298     0.35300
C1407       C  0.57251171  0.03880790  0.98596839     0.35300
C1408       C  0.99535667  0.42734230  0.01437895    -0.22200
C1409       C  0.52569348  0.42735360  0.01467114    -0.22200
C1410       C  0.99497473  0.10029426  0.02354944    -0.22200
C1411       C  0.52525695  0.10026109  0.02454713    -0.22200
C1412       C  0.92287541  0.00028162  0.96524614    -0.23300
C1413       C  0.92286814  0.03046562  0.96683957    -0.23300
C1414       C  0.59992620  0.00050906  0.96943036    -0.23300
C1415       C  0.59988684  0.03070792  0.97136727    -0.23300
C1416       C  0.95746007  0.46174254  0.98861068    -0.18600
C1417       C  0.56416225  0.46179451  0.98983086    -0.18600
C1418       C  0.56410782  0.06754222  0.99703569    -0.18600
C1419       C  0.95747083  0.06741414  0.99405801    -0.18600
H1420       H  0.98129275  0.40958021  0.02430561     0.14300
H1421       H  0.53954511  0.40959732  0.02489814     0.14300
H1422       H  0.98075262  0.11733578  0.03516677     0.14300
H1423       H  0.53891381  0.11730467  0.03706469     0.14300
H1424       H  0.90514402  0.48662991  0.95454791     0.12600
H1425       H  0.90512631  0.04474720  0.95768126     0.12600
H1426       H  0.61821723  0.48691137  0.96006383     0.12600
H1427       H  0.61814283  0.04498673  0.96388693     0.12600
H1428       H  0.51100779  0.48899860  0.97142686     0.25800
H1429       H  0.51116156  0.04132953  0.97478310     0.25800
C1430       C  0.65191276  0.16027191  0.66531906     0.02800
C1431       C  0.66359204  0.17037792  0.96262521    -0.13400
C1432       C  0.68551168  0.19200688  0.96199762     0.00300
C1433       C  0.69676801  0.20283846  0.99739303    -0.11900
C1434       C  0.68594418  0.19227532  0.70008458     0.02800
C1435       C  0.66345926  0.17120845  0.70072466    -0.11300
H1436       H  0.65541855  0.16162036  0.93509965     0.08400
H1437       H  0.71393536  0.21939797  0.99690351     0.05900
H1438       H  0.65483864  0.16349816  0.72874718     0.05800
N1439       N  0.79634661  0.31853680  0.87624230    -0.06500
N1440       N  0.79981019  0.33625500  0.90662436    -0.58600
N1441       N  0.81745429  0.29773662  0.78569351    -0.06100
N1442       N  0.83615822  0.30131229  0.75608195    -0.60700
N1443       N  0.79745329  0.31866177  0.78553682    -0.05700
N1444       N  0.80219905  0.33697854  0.75597920    -0.58600
N1445       N  0.81622881  0.29750939  0.87669565    -0.05400
N1446       N  0.83359797  0.30037561  0.90748104    -0.61100
C1447       C  0.82308879  0.32462793  0.92567060     0.95700
C1448       C  0.82655838  0.32607451  0.73821526     0.95500
N1449       N  0.79484611  0.20867847  0.78589445    -0.06600
N1450       N  0.79831329  0.19070020  0.75572940    -0.59200
N1451       N  0.81495519  0.22863334  0.87672107    -0.04800
N1452       N  0.83278437  0.22459010  0.90678700    -0.60400
N1453       N  0.79399268  0.20867719  0.87682246    -0.06700
N1454       N  0.79704153  0.19066154  0.90709273    -0.59400
N1455       N  0.81582292  0.22861797  0.78611090    -0.04400
N1456       N  0.83407913  0.22460788  0.75619641    -0.60500
Mn1457     Mn  0.81712715  0.26310920  0.83126959     1.18400
C1458       C  0.82296707  0.20080287  0.73781333     0.97800
C1459       C  0.82141826  0.20078799  0.92521264     0.98500
N1460       N  0.72789245  0.32017889  0.78489044    -0.06700
N1461       N  0.72437939  0.33851324  0.75505634    -0.63000
N1462       N  0.70655848  0.30014708  0.87597547    -0.05500
N1463       N  0.68873749  0.30404479  0.90641120    -0.63700
N1464       N  0.72751076  0.32011583  0.87579655    -0.06200
N1465       N  0.72447746  0.33798738  0.90614913    -0.63300
N1466       N  0.70687267  0.30026514  0.78520959    -0.05100
N1467       N  0.68861481  0.30463504  0.75566235    -0.64000
Mn1468     Mn  0.76232612  0.32038761  0.83048058     1.10700
C1469       C  0.69965758  0.32867864  0.73742645     0.99000
C1470       C  0.70017020  0.32775994  0.92471302     0.99100
N1471       N  0.72503151  0.21012043  0.87610225    -0.06200
N1472       N  0.72092622  0.19207879  0.90611611    -0.61600
N1473       N  0.70560396  0.23118425  0.78530603    -0.05500
N1474       N  0.68763744  0.22799086  0.75521352    -0.58300
N1475       N  0.72560369  0.21024860  0.78535436    -0.06800
N1476       N  0.72164512  0.19231723  0.75528652    -0.61100
N1477       N  0.70497526  0.23098657  0.87617959    -0.05800
N1478       N  0.68674264  0.22756629  0.90631955    -0.58300
Mn1479     Mn  0.75983917  0.20840384  0.83100303     1.20200
Mn1480     Mn  0.70496686  0.26566174  0.83067910     1.10100
Cl1481     Cl  0.76105482  0.26439343  0.83075528    -0.86300
C1482       C  0.69687002  0.20309732  0.92438266     0.96000
C1483       C  0.69782180  0.20360855  0.73703393     0.95800
C1484       C  0.63244719  0.11244897  0.68945428    -0.26700
C1485       C  0.62837983  0.13759385  0.66602009    -0.14700
C1486       C  0.60235596  0.14008336  0.97670765     0.35900
C1487       C  0.58272351  0.11638302  0.97552573    -0.26100
C1488       C  0.58675822  0.09126532  0.99896004    -0.15300
C1489       C  0.61164500  0.08973909  0.69053922     0.37000
N1490       N  0.61619473  0.06618531  0.71813224    -0.89600
H1491       H  0.65195599  0.11050454  0.70748376     0.18100
H1492       H  0.56343290  0.11802943  0.95701640     0.18100
N1493       N  0.59457090  0.16638954  0.95555151    -0.88600
H1494       H  0.63433766  0.05398486  0.70841474     0.35500
H1495       H  0.59818361  0.05203233  0.71983315     0.40600
H1496       H  0.60853850  0.18379584  0.96236474     0.40200
H1497       H  0.57386624  0.17308208  0.96578614     0.35100
C1498       C  0.93804353  0.11572010  0.97122794    -0.26700
C1499       C  0.93458143  0.09078403  0.99511209    -0.14700
C1500       C  0.91013735  0.08885414  0.68729329     0.35900
C1501       C  0.88899049  0.11126482  0.68740089    -0.26100
C1502       C  0.89226766  0.13630144  0.66341914    -0.15300
C1503       C  0.91784410  0.13898908  0.97267302     0.37000
N1504       N  0.92464801  0.16509952  0.95038990    -0.89600
H1505       H  0.95720992  0.11752980  0.95217763     0.18100
H1506       H  0.86978910  0.10899487  0.70628720     0.18100
N1507       N  0.90694304  0.06430868  0.71345442    -0.88600
H1508       H  0.94538127  0.17239463  0.95933562     0.35500
H1509       H  0.91042642  0.18230369  0.95743729     0.40600
H1510       H  0.90600978  0.07232817  0.74228736     0.40200
H1511       H  0.88687546  0.05405779  0.70744375     0.35100
C1512       C  0.61043355  0.44153210  0.68441978    -0.26700
C1513       C  0.58739006  0.43862233  0.99065579    -0.14700
C1514       C  0.58675942  0.41369584  0.96566362     0.35900
C1515       C  0.60861511  0.39218207  0.96929277    -0.26100
C1516       C  0.63196727  0.39529934  0.66261020    -0.15300
C1517       C  0.63310116  0.42060575  0.68665263     0.37000
N1518       N  0.65757202  0.42538818  0.71250731    -0.89600
H1519       H  0.61096309  0.46060018  0.70350524     0.18100
H1520       H  0.60753050  0.37296573  0.95053140     0.18100
N1521       N  0.56503268  0.40980764  0.93548332    -0.88600
H1522       H  0.65497048  0.44502811  0.72810831     0.35500
H1523       H  0.67640816  0.42788975  0.69494968     0.40600
H1524       H  0.55158631  0.42821346  0.93226048     0.40200
H1525       H  0.55160591  0.39215867  0.94377451     0.35100
C1526       C  0.91317373  0.39229645  0.96747993    -0.26700
C1527       C  0.88895058  0.39582163  0.65970217    -0.14700
C1528       C  0.88667662  0.42197652  0.68224489     0.35900
C1529       C  0.90986031  0.44229722  0.68116536    -0.26100
C1530       C  0.93402865  0.43874960  0.98890108    -0.15300
C1531       C  0.93515844  0.41372904  0.96415151     0.37000
N1532       N  0.95756250  0.40965916  0.93451957    -0.89600
H1533       H  0.91490614  0.37272745  0.94943568     0.18100
H1534       H  0.90850569  0.46168242  0.69962850     0.18100
N1535       N  0.86102826  0.42924693  0.70540557    -0.88600
H1536       H  0.97078328  0.39204417  0.94326848     0.35500
H1537       H  0.97107817  0.42804827  0.93141332     0.40600
H1538       H  0.84381883  0.41461241  0.70037738     0.40200
H1539       H  0.85322971  0.44952540  0.69534364     0.35100
C1540       C  0.86684823  0.87175494  0.99530163     0.02800
C1541       C  0.85511476  0.85998333  0.29385900    -0.13400
C1542       C  0.83514316  0.83659877  0.29545728     0.00300
C1543       C  0.82636334  0.82503120  0.33190068    -0.11900
C1544       C  0.83762671  0.83674384  0.03347253     0.02800
C1545       C  0.85820810  0.85970282  0.03182535    -0.11300
H1546       H  0.86150456  0.86902677  0.26549630     0.08400
H1547       H  0.81042250  0.80730689  0.33312275     0.05900
H1548       H  0.86722957  0.86838309  0.05890440     0.05800
C1549       C  0.65542188  0.87242429  0.99696311     0.02800
C1550       C  0.66701060  0.86125162  0.29482677    -0.13400
C1551       C  0.68886644  0.83960522  0.29520627     0.00300
C1552       C  0.69981156  0.82925994  0.33106631    -0.11900
C1553       C  0.68849713  0.84010823  0.03330146     0.02800
C1554       C  0.66608334  0.86132665  0.03292622    -0.11300
H1555       H  0.65919601  0.86950915  0.26680971     0.08400
H1556       H  0.71687945  0.81259751  0.33129642     0.05900
H1557       H  0.65685163  0.86894446  0.06059483     0.05800
C1558       C  0.86835361  0.65856412  0.99707931     0.02800
C1559       C  0.85560522  0.66820300  0.29501650    -0.13400
C1560       C  0.83288478  0.68902032  0.29555571     0.00300
C1561       C  0.82202924  0.69953489  0.33154248    -0.11900
C1562       C  0.83418175  0.68963211  0.03359812     0.02800
C1563       C  0.85739532  0.66941076  0.03303912    -0.11300
H1564       H  0.86356826  0.65975033  0.26706822     0.08400
H1565       H  0.80443654  0.71564538  0.33199710     0.05900
H1566       H  0.86693298  0.66215373  0.06058414     0.05800
N1567       N  0.51080914  0.96991590  0.32176946    -0.37000
N1568       N  0.96571165  0.51457669  0.32495955    -0.59300
N1569       N  0.51080448  0.55936212  0.32699037    -0.36900
N1570       N  0.55585994  0.51471140  0.32604518    -0.57500
C1571       C  0.98672428  0.95387527  0.33129351     0.26600
C1572       C  0.53468190  0.95390727  0.33178383     0.26600
C1573       C  0.98662070  0.57480036  0.33762401     0.26600
C1574       C  0.53450231  0.57478610  0.33908649     0.26600
C1575       C  0.94948656  0.99113499  0.31413800     0.35300
C1576       C  0.94946261  0.53860093  0.31665948     0.35300
C1577       C  0.57254084  0.99127170  0.31616846     0.35300
C1578       C  0.57251202  0.53880817  0.31930036     0.35300
C1579       C  0.99535725  0.92734197  0.34771372    -0.22200
C1580       C  0.52569416  0.92735376  0.34800767    -0.22200
C1581       C  0.99497485  0.60029424  0.35688215    -0.22200
C1582       C  0.52525729  0.60026115  0.35787977    -0.22200
C1583       C  0.92287593  0.50028125  0.29857898    -0.23300
C1584       C  0.92286859  0.53046526  0.30017214    -0.23300
C1585       C  0.59992660  0.50050943  0.30276219    -0.23300
C1586       C  0.59988707  0.53070830  0.30469886    -0.23300
C1587       C  0.95746051  0.96174187  0.32194496    -0.18600
C1588       C  0.56416283  0.96179457  0.32316664    -0.18600
C1589       C  0.56410814  0.56754243  0.33036784    -0.18600
C1590       C  0.95747098  0.56741390  0.32739108    -0.18600
H1591       H  0.98129342  0.90957979  0.35764035     0.14300
H1592       H  0.53954580  0.90959766  0.35823514     0.14300
H1593       H  0.98075270  0.61733573  0.36849952     0.14300
H1594       H  0.53891412  0.61730474  0.37039736     0.14300
H1595       H  0.90514454  0.98662871  0.28788130     0.12600
H1596       H  0.90512684  0.54474678  0.29101343     0.12600
H1597       H  0.61821747  0.98691163  0.29339849     0.12600
H1598       H  0.61814290  0.54498720  0.29721817     0.12600
H1599       H  0.51100844  0.98899826  0.30476162     0.25800
H1600       H  0.51116195  0.54132959  0.30811556     0.25800
C1601       C  0.65191352  0.66027108  0.99865246     0.02800
C1602       C  0.66359313  0.67037784  0.29595809    -0.13400
C1603       C  0.68551314  0.69200644  0.29533122     0.00300
C1604       C  0.69676932  0.70283759  0.33072700    -0.11900
C1605       C  0.68594466  0.69227466  0.03341820     0.02800
C1606       C  0.66346005  0.67120746  0.03405815    -0.11300
H1607       H  0.65541979  0.66162060  0.26843228     0.08400
H1608       H  0.71393685  0.71939692  0.33023804     0.05900
H1609       H  0.65483968  0.66349681  0.06208060     0.05800
N1610       N  0.79634696  0.81853669  0.20957608    -0.06500
N1611       N  0.79981052  0.83625479  0.23995825    -0.58600
N1612       N  0.81745474  0.79773691  0.11902730    -0.06100
N1613       N  0.83615856  0.80131264  0.08941562    -0.60700
N1614       N  0.79745366  0.81866198  0.11887071    -0.05700
N1615       N  0.80219925  0.83697877  0.08931307    -0.58600
N1616       N  0.81622924  0.79750936  0.21002930    -0.05400
N1617       N  0.83359840  0.80037548  0.24081469    -0.61100
C1618       C  0.82308915  0.82462769  0.25900443     0.95700
C1619       C  0.82655853  0.82607480  0.07154896     0.95500
N1620       N  0.79484702  0.70867868  0.11922770    -0.06600
N1621       N  0.79831416  0.69070071  0.08906234    -0.59200
N1622       N  0.81495589  0.72863334  0.21005470    -0.04800
N1623       N  0.83278483  0.72459026  0.24012094    -0.60400
N1624       N  0.79399355  0.70867703  0.21015578    -0.06700
N1625       N  0.79704229  0.69066138  0.24042608    -0.59400
N1626       N  0.81582373  0.72861827  0.11944435    -0.04400
N1627       N  0.83407983  0.72460858  0.08952964    -0.60500
Mn1628     Mn  0.81712778  0.76310933  0.16460323     1.18400
C1629       C  0.82296782  0.70080368  0.07114630     0.97800
C1630       C  0.82141873  0.70078810  0.25854646     0.98500
N1631       N  0.72789262  0.82017869  0.11822414    -0.06700
N1632       N  0.72437930  0.83851318  0.08839024    -0.63000
N1633       N  0.70655882  0.80014635  0.20930900    -0.05500
N1634       N  0.68873767  0.80404384  0.23974463    -0.63700
N1635       N  0.72751087  0.82011534  0.20913019    -0.06200
N1636       N  0.72447721  0.83798688  0.23948273    -0.63300
N1637       N  0.70687300  0.80026476  0.11854319    -0.05100
N1638       N  0.68861502  0.80463467  0.08899608    -0.64000
Mn1639     Mn  0.76232638  0.82038749  0.16381433     1.10700
C1640       C  0.69965750  0.82867848  0.07076035     0.99000
C1641       C  0.70016999  0.82775918  0.25804644     0.99100
N1642       N  0.72503250  0.71011987  0.20943539    -0.06200
N1643       N  0.72092768  0.69207851  0.23944967    -0.61600
N1644       N  0.70560484  0.73118384  0.11863924    -0.05500
N1645       N  0.68763810  0.72799027  0.08854700    -0.58300
N1646       N  0.72560460  0.71024823  0.11868751    -0.06800
N1647       N  0.72164581  0.69231667  0.08861992    -0.61100
N1648       N  0.70497618  0.73098593  0.20951282    -0.05800
N1649       N  0.68674394  0.72756588  0.23965323    -0.58300
Mn1650     Mn  0.75984012  0.70840362  0.16433618     1.20200
Mn1651     Mn  0.70496752  0.76566118  0.16401247     1.10100
Cl1652     Cl  0.76105547  0.76439327  0.16408869    -0.86300
C1653       C  0.69687170  0.70309718  0.25771658     0.96000
C1654       C  0.69782230  0.70360783  0.07036758     0.95800
C1655       C  0.63244792  0.61244791  0.02278716    -0.26700
C1656       C  0.62838067  0.63759293  0.99935316    -0.14700
C1657       C  0.60235642  0.64008350  0.31003988     0.35900
C1658       C  0.58272379  0.61638331  0.30885810    -0.26100
C1659       C  0.58675855  0.59126547  0.33229215    -0.15300
C1660       C  0.61164575  0.58973796  0.02387157     0.37000
N1661       N  0.61619525  0.56618403  0.05146444    -0.89600
H1662       H  0.65195656  0.61050342  0.04081693     0.18100
H1663       H  0.56343302  0.61802991  0.29034908     0.18100
N1664       N  0.59457140  0.66638984  0.28888403    -0.88600
H1665       H  0.63433818  0.55398379  0.04174734     0.35500
H1666       H  0.59818404  0.55203086  0.05316472     0.40600
H1667       H  0.60853945  0.68379581  0.29569650     0.40200
H1668       H  0.57386700  0.67308278  0.29911948     0.35100
C1669       C  0.93804351  0.61571991  0.30456154    -0.26700
C1670       C  0.93458146  0.59078364  0.32844534    -0.14700
C1671       C  0.91013839  0.58885538  0.02062727     0.35900
C1672       C  0.88899162  0.61126615  0.02073479    -0.26100
C1673       C  0.89226852  0.63630240  0.99675224    -0.15300
C1674       C  0.91784398  0.63898875  0.30600687     0.37000
N1675       N  0.92464787  0.66509947  0.28372431    -0.89600
H1676       H  0.95720994  0.61752992  0.28551135     0.18100
H1677       H  0.86979049  0.60899656  0.03962166     0.18100
N1678       N  0.90694439  0.56431032  0.04678918    -0.88600
H1679       H  0.94538102  0.67239458  0.29267039     0.35500
H1680       H  0.91042619  0.68230354  0.29077194     0.40600
H1681       H  0.90601160  0.57233028  0.07562193     0.40200
H1682       H  0.88687666  0.55405937  0.04077944     0.35100
C1683       C  0.61043272  0.94153154  0.01775357    -0.26700
C1684       C  0.58739059  0.93862236  0.32399091    -0.14700
C1685       C  0.58675931  0.91369581  0.29899891     0.35900
C1686       C  0.60861494  0.89218192  0.30262739    -0.26100
C1687       C  0.63196657  0.89529880  0.99594396    -0.15300
C1688       C  0.63310015  0.92060500  0.01998684     0.37000
N1689       N  0.65757066  0.92538716  0.04584218    -0.89600
H1690       H  0.61096209  0.96059948  0.03683928     0.18100
H1691       H  0.60752988  0.87296555  0.28386611     0.18100
N1692       N  0.56503199  0.90980765  0.26881932    -0.88600
H1693       H  0.65496894  0.94502696  0.06144347     0.35500
H1694       H  0.67640702  0.92788890  0.02828498     0.40600
H1695       H  0.55158578  0.92821368  0.26559656     0.40200
H1696       H  0.55160518  0.89215897  0.27711106     0.35100
C1697       C  0.91317427  0.89229569  0.30081451    -0.26700
C1698       C  0.88894983  0.89582260  0.99303603    -0.14700
C1699       C  0.88667644  0.92197709  0.01557977     0.35900
C1700       C  0.90986024  0.94229763  0.01450019    -0.26100
C1701       C  0.93402917  0.93874886  0.32223554    -0.15300
C1702       C  0.93515902  0.91372824  0.29748611     0.37000
N1703       N  0.95756319  0.90965828  0.26785432    -0.89600
H1704       H  0.91490666  0.87272666  0.28277032     0.18100
H1705       H  0.90850611  0.96168249  0.03296405     0.18100
N1706       N  0.86102853  0.92924720  0.03874154    -0.88600
H1707       H  0.97078394  0.89204339  0.27660337     0.35500
H1708       H  0.97107891  0.92804748  0.26474809     0.40600
H1709       H  0.84381899  0.91461310  0.03371319     0.40200
H1710       H  0.85322999  0.94952611  0.02868069     0.35100
C1711       C  0.86684879  0.87175438  0.32863560     0.02800
C1712       C  0.85511436  0.85998346  0.62719179    -0.13400
C1713       C  0.83514271  0.83659894  0.62879031     0.00300
C1714       C  0.82636306  0.82503137  0.66523379    -0.11900
C1715       C  0.83762683  0.83674344  0.36680618     0.02800
C1716       C  0.85820827  0.85970238  0.36515922    -0.11300
H1717       H  0.86150412  0.86902680  0.59882904     0.08400
H1718       H  0.81042225  0.80730703  0.66645599     0.05900
H1719       H  0.86722949  0.86838270  0.39223839     0.05800
C1720       C  0.65542217  0.87242412  0.33029640     0.02800
C1721       C  0.66701052  0.86125219  0.62815979    -0.13400
C1722       C  0.68886632  0.83960572  0.62853911     0.00300
C1723       C  0.69981158  0.82926044  0.66439907    -0.11900
C1724       C  0.68849688  0.84010763  0.36663481     0.02800
C1725       C  0.66608351  0.86132645  0.36625953    -0.11300
H1726       H  0.65919588  0.86950979  0.60014278     0.08400
H1727       H  0.71687943  0.81259797  0.66462908     0.05900
H1728       H  0.65685198  0.86894452  0.39392811     0.05800
C1729       C  0.86835328  0.65856347  0.33041297     0.02800
C1730       C  0.85560540  0.66820301  0.62835009    -0.13400
C1731       C  0.83288485  0.68902023  0.62888931     0.00300
C1732       C  0.82202913  0.69953462  0.66487608    -0.11900
C1733       C  0.83418177  0.68963178  0.36693183     0.02800
C1734       C  0.85739509  0.66941015  0.36637280    -0.11300
H1735       H  0.86356857  0.65975050  0.60040178     0.08400
H1736       H  0.80443638  0.71564504  0.66533070     0.05900
H1737       H  0.86693267  0.66215301  0.39391781     0.05800
N1738       N  0.51080894  0.96991623  0.65510298    -0.37000
N1739       N  0.96571165  0.51457629  0.65829273    -0.59300
N1740       N  0.51080425  0.55936178  0.66032337    -0.36900
N1741       N  0.55585962  0.51471112  0.65937891    -0.57500
C1742       C  0.98672406  0.95387536  0.66462631     0.26600
C1743       C  0.53468174  0.95390770  0.66511748     0.26600
C1744       C  0.98662045  0.57479998  0.67095781     0.26600
C1745       C  0.53450207  0.57478582  0.67241952     0.26600
C1746       C  0.94948664  0.99113513  0.64747021     0.35300
C1747       C  0.94946266  0.53860054  0.64999252     0.35300
C1748       C  0.57254058  0.99127234  0.64950260     0.35300
C1749       C  0.57251176  0.53880782  0.65263384     0.35300
C1750       C  0.99535692  0.92734219  0.68104697    -0.22200
C1751       C  0.52569405  0.92735404  0.68134085    -0.22200
C1752       C  0.99497444  0.60029380  0.69021630    -0.22200
C1753       C  0.52525701  0.60026084  0.69121279    -0.22200
C1754       C  0.92287628  0.50028088  0.63191107    -0.23300
C1755       C  0.92286886  0.53046488  0.63350459    -0.23300
C1756       C  0.59992629  0.50050894  0.63609613    -0.23300
C1757       C  0.59988681  0.53070782  0.63803247    -0.23300
C1758       C  0.95746037  0.96174197  0.65527737    -0.18600
C1759       C  0.56416270  0.96179518  0.65650073    -0.18600
C1760       C  0.56410791  0.56754215  0.66370099    -0.18600
C1761       C  0.95747082  0.56741348  0.66072450    -0.18600
H1762       H  0.98129303  0.90958005  0.69097365     0.14300
H1763       H  0.53954579  0.90959798  0.69156821     0.14300
H1764       H  0.98075219  0.61733515  0.70183377     0.14300
H1765       H  0.53891385  0.61730443  0.70373036     0.14300
H1766       H  0.90514493  0.98662901  0.62121259     0.12600
H1767       H  0.90512716  0.54474642  0.62434571     0.12600
H1768       H  0.61821732  0.98691241  0.62673304     0.12600
H1769       H  0.61814267  0.54498665  0.63055164     0.12600
H1770       H  0.51100823  0.98899866  0.63809537     0.25800
H1771       H  0.51116173  0.54132935  0.64144866     0.25800
C1772       C  0.65191354  0.66027133  0.33198532     0.02800
C1773       C  0.66359308  0.67037725  0.62929152    -0.13400
C1774       C  0.68551293  0.69200599  0.62866454     0.00300
C1775       C  0.69676889  0.70283745  0.66406027    -0.11900
C1776       C  0.68594491  0.69227436  0.36675160     0.02800
C1777       C  0.66346002  0.67120747  0.36739118    -0.11300
H1778       H  0.65541976  0.66161987  0.60176576     0.08400
H1779       H  0.71393631  0.71939690  0.66357122     0.05900
H1780       H  0.65483939  0.66349685  0.39541352     0.05800
N1781       N  0.79634652  0.81853655  0.54290926    -0.06500
N1782       N  0.79980998  0.83625472  0.57329139    -0.58600
N1783       N  0.81745442  0.79773652  0.45236074    -0.06100
N1784       N  0.83615839  0.80131227  0.42274925    -0.60700
N1785       N  0.79745326  0.81866150  0.45220390    -0.05700
N1786       N  0.80219896  0.83697829  0.42264629    -0.58600
N1787       N  0.81622885  0.79750927  0.54336263    -0.05400
N1788       N  0.83359797  0.80037552  0.57414802    -0.61100
C1789       C  0.82308863  0.82462772  0.59233762     0.95700
C1790       C  0.82655839  0.82607438  0.40488246     0.95500
N1791       N  0.79484703  0.70867840  0.45256138    -0.06600
N1792       N  0.79831428  0.69070033  0.42239615    -0.59200
N1793       N  0.81495582  0.72863326  0.54338833    -0.04800
N1794       N  0.83278478  0.72459023  0.57345456    -0.60400
N1795       N  0.79399354  0.70867688  0.54348941    -0.06700
N1796       N  0.79704235  0.69066125  0.57375970    -0.59400
N1797       N  0.81582371  0.72861802  0.45277801    -0.04400
N1798       N  0.83407990  0.72460825  0.42286343    -0.60500
Mn1799     Mn  0.81712756  0.76310914  0.49793678     1.18400
C1800       C  0.82296793  0.70080331  0.40448010     0.97800
C1801       C  0.82141878  0.70078800  0.59188005     0.98500
N1802       N  0.72789232  0.82017817  0.45155739    -0.06700
N1803       N  0.72437897  0.83851263  0.42172350    -0.63000
N1804       N  0.70655857  0.80014625  0.54264229    -0.05500
N1805       N  0.68873735  0.80404409  0.57307776    -0.63700
N1806       N  0.72751063  0.82011523  0.54246325    -0.06200
N1807       N  0.72447696  0.83798705  0.57281547    -0.63300
N1808       N  0.70687269  0.80026425  0.45187658    -0.05100
N1809       N  0.68861465  0.80463416  0.42232955    -0.64000
Mn1810     Mn  0.76232603  0.82038714  0.49714747     1.10700
C1811       C  0.69965715  0.82867793  0.40409372     0.99000
C1812       C  0.70016964  0.82775960  0.59137920     0.99100
N1813       N  0.72503245  0.71011954  0.54276894    -0.06200
N1814       N  0.72092750  0.69207806  0.57278305    -0.61600
N1815       N  0.70560473  0.73118331  0.45197295    -0.05500
N1816       N  0.68763802  0.72798971  0.42188070    -0.58300
N1817       N  0.72560457  0.71024777  0.45202117    -0.06800
N1818       N  0.72164587  0.69231624  0.42195352    -0.61100
N1819       N  0.70497615  0.73098564  0.54284641    -0.05800
N1820       N  0.68674382  0.72756549  0.57298668    -0.58300
Mn1821     Mn  0.75984010  0.70840330  0.49766982     1.20200
Mn1822     Mn  0.70496732  0.76566080  0.49734601     1.10100
Cl1823     Cl  0.76105524  0.76439294  0.49742224    -0.86300
C1824       C  0.69687146  0.70309668  0.59104987     0.96000
C1825       C  0.69782233  0.70360734  0.40370120     0.95800
C1826       C  0.63244817  0.61244807  0.35611964    -0.26700
C1827       C  0.62838074  0.63759314  0.33268581    -0.14700
C1828       C  0.60235626  0.64008330  0.64337351     0.35900
C1829       C  0.58272358  0.61638313  0.64219159    -0.26100
C1830       C  0.58675835  0.59126518  0.66562545    -0.15300
C1831       C  0.61164594  0.58973824  0.35720451     0.37000
N1832       N  0.61619565  0.56618434  0.38479738    -0.89600
H1833       H  0.65195698  0.61050353  0.37414906     0.18100
H1834       H  0.56343280  0.61802985  0.62368261     0.18100
N1835       N  0.59457121  0.66638979  0.62221802    -0.88600
H1836       H  0.63433846  0.55398401  0.37508000     0.35500
H1837       H  0.59818442  0.55203125  0.38649809     0.40600
H1838       H  0.60853932  0.68379571  0.62903058     0.40200
H1839       H  0.57386686  0.67308269  0.63245365     0.35100
C1840       C  0.93804344  0.61571957  0.63789517    -0.26700
C1841       C  0.93458123  0.59078317  0.66177865    -0.14700
C1842       C  0.91013806  0.58885469  0.35396053     0.35900
C1843       C  0.88899124  0.61126542  0.35406818    -0.26100
C1844       C  0.89226817  0.63630178  0.33008584    -0.15300
C1845       C  0.91784400  0.63898850  0.63934061     0.37000
N1846       N  0.92464804  0.66509928  0.61705828    -0.89600
H1847       H  0.95720998  0.61752963  0.61884518     0.18100
H1848       H  0.86979005  0.60899567  0.37295488     0.18100
N1849       N  0.90694392  0.56430937  0.38012195    -0.88600
H1850       H  0.94538129  0.67239424  0.62600442     0.35500
H1851       H  0.91042649  0.68230335  0.62410606     0.40600
H1852       H  0.90601105  0.57232893  0.40895468     0.40200
H1853       H  0.88687608  0.55405850  0.37411176     0.35100
C1854       C  0.61043391  0.94153189  0.35108658    -0.26700
C1855       C  0.58739054  0.93862299  0.65732482    -0.14700
C1856       C  0.58675939  0.91369670  0.63233239     0.35900
C1857       C  0.60861498  0.89218272  0.63596068    -0.26100
C1858       C  0.63196707  0.89529878  0.32927727    -0.15300
C1859       C  0.63310125  0.92060524  0.35331956     0.37000
N1860       N  0.65757223  0.92538749  0.37917407    -0.89600
H1861       H  0.61096372  0.96060004  0.37017188     0.18100
H1862       H  0.60752992  0.87296647  0.61719919     0.18100
N1863       N  0.56503221  0.90980884  0.60215258    -0.88600
H1864       H  0.65497096  0.94502749  0.39477500     0.35500
H1865       H  0.67640833  0.92788884  0.36161627     0.40600
H1866       H  0.55158599  0.92821499  0.59892999     0.40200
H1867       H  0.55160539  0.89216016  0.61044394     0.35100
C1868       C  0.91317427  0.89229550  0.63414744    -0.26700
C1869       C  0.88895049  0.89582198  0.32637024    -0.14700
C1870       C  0.88667687  0.92197659  0.34891365     0.35900
C1871       C  0.90986069  0.94229715  0.34783425    -0.26100
C1872       C  0.93402892  0.93874901  0.65556779    -0.15300
C1873       C  0.93515903  0.91372807  0.63081893     0.37000
N1874       N  0.95756355  0.90965772  0.60118770    -0.89600
H1875       H  0.91490685  0.87272622  0.61610377     0.18100
H1876       H  0.90850638  0.96168213  0.36629782     0.18100
N1877       N  0.86102873  0.92924686  0.37207485    -0.88600
H1878       H  0.97078416  0.89204295  0.60993740     0.35500
H1879       H  0.97107935  0.92804688  0.59808133     0.40600
H1880       H  0.84381909  0.91461254  0.36704636     0.40200
H1881       H  0.85323030  0.94952552  0.36201368     0.35100
C1882       C  0.86684851  0.87175455  0.66196829     0.02800
C1883       C  0.85511391  0.85998395  0.96052513    -0.13400
C1884       C  0.83514248  0.83659923  0.96212364     0.00300
C1885       C  0.82636298  0.82503158  0.99856715    -0.11900
C1886       C  0.83762666  0.83674368  0.70013918     0.02800
C1887       C  0.85820803  0.85970269  0.69849204    -0.11300
H1888       H  0.86150343  0.86902748  0.93216239     0.08400
H1889       H  0.81042224  0.80730719  0.99978940     0.05900
H1890       H  0.86722931  0.86838313  0.72557110     0.05800
C1891       C  0.65542221  0.87242468  0.66362950     0.02800
C1892       C  0.66701044  0.86125191  0.96149346    -0.13400
C1893       C  0.68886651  0.83960573  0.96187288     0.00300
C1894       C  0.69981187  0.82926067  0.99773292    -0.11900
C1895       C  0.68849708  0.84010814  0.69996767     0.02800
C1896       C  0.66608368  0.86132695  0.69959253    -0.11300
H1897       H  0.65919576  0.86950934  0.93347639     0.08400
H1898       H  0.71687993  0.81259843  0.99796304     0.05900
H1899       H  0.65685221  0.86894497  0.72726118     0.05800
C1900       C  0.86835328  0.65856328  0.66374659     0.02800
C1901       C  0.85560546  0.66820352  0.96168286    -0.13400
C1902       C  0.83288476  0.68902055  0.96222207     0.00300
C1903       C  0.82202909  0.69953500  0.99820880    -0.11900
C1904       C  0.83418157  0.68963142  0.70026546     0.02800
C1905       C  0.85739493  0.66940978  0.69970644    -0.11300
H1906       H  0.86356852  0.65975093  0.93373455     0.08400
H1907       H  0.80443620  0.71564529  0.99866344     0.05900
H1908       H  0.86693240  0.66215252  0.72725145     0.05800
N1909       N  0.51080850  0.96991619  0.98843486    -0.37000
N1910       N  0.96571159  0.51457702  0.99162583    -0.59300
N1911       N  0.51080431  0.55936211  0.99365675    -0.36900
N1912       N  0.55585951  0.51471115  0.99271108    -0.57500
C1913       C  0.98672377  0.95387549  0.99795876     0.26600
C1914       C  0.53468119  0.95390724  0.99844892     0.26600
C1915       C  0.98662092  0.57480060  0.00429043     0.26600
C1916       C  0.53450225  0.57478597  0.00575284     0.26600
C1917       C  0.94948613  0.99113560  0.98080431     0.35300
C1918       C  0.94946258  0.53860134  0.98332607     0.35300
C1919       C  0.57254037  0.99127170  0.98283468     0.35300
C1920       C  0.57251184  0.53880783  0.98596675     0.35300
C1921       C  0.99535665  0.92734200  0.01437855    -0.22200
C1922       C  0.52569327  0.92735360  0.01467214    -0.22200
C1923       C  0.99497517  0.60029434  0.02354877    -0.22200
C1924       C  0.52525737  0.60026105  0.02454610    -0.22200
C1925       C  0.92287558  0.50028180  0.96524580    -0.23300
C1926       C  0.92286841  0.53046579  0.96683910    -0.23300
C1927       C  0.59992630  0.50050893  0.96942872    -0.23300
C1928       C  0.59988694  0.53070781  0.97136560    -0.23300
C1929       C  0.95745998  0.96174237  0.98861069    -0.18600
C1930       C  0.56416221  0.96179455  0.98983233    -0.18600
C1931       C  0.56410807  0.56754215  0.99703426    -0.18600
C1932       C  0.95747114  0.56741428  0.99405755    -0.18600
H1933       H  0.98129274  0.90957986  0.02430514     0.14300
H1934       H  0.53954478  0.90959732  0.02489931     0.14300
H1935       H  0.98075311  0.61733587  0.03516620     0.14300
H1936       H  0.53891432  0.61730458  0.03706364     0.14300
H1937       H  0.90514388  0.98662969  0.95454825     0.12600
H1938       H  0.90512665  0.54474741  0.95768061     0.12600
H1939       H  0.61821712  0.98691152  0.96006533     0.12600
H1940       H  0.61814294  0.54498662  0.96388529     0.12600
H1941       H  0.51100790  0.98899868  0.97142771     0.25800
H1942       H  0.51116162  0.54132969  0.97478214     0.25800
C1943       C  0.65191349  0.66027086  0.66531879     0.02800
C1944       C  0.66359285  0.67037756  0.96262503    -0.13400
C1945       C  0.68551251  0.69200648  0.96199785     0.00300
C1946       C  0.69676864  0.70283796  0.99739344    -0.11900
C1947       C  0.68594446  0.69227438  0.70008493     0.02800
C1948       C  0.66345975  0.67120730  0.70072458    -0.11300
H1949       H  0.65541949  0.66162011  0.93509934     0.08400
H1950       H  0.71393596  0.71939752  0.99690420     0.05900
H1951       H  0.65483905  0.66349677  0.72874694     0.05800
N1952       N  0.79634645  0.81853690  0.87624239    -0.06500
N1953       N  0.79980986  0.83625502  0.90662459    -0.58600
N1954       N  0.81745428  0.79773674  0.78569373    -0.06100
N1955       N  0.83615821  0.80131243  0.75608218    -0.60700
N1956       N  0.79745321  0.81866182  0.78553701    -0.05700
N1957       N  0.80219894  0.83697860  0.75597941    -0.58600
N1958       N  0.81622872  0.79750958  0.87669576    -0.05400
N1959       N  0.83359774  0.80037571  0.90748129    -0.61100
C1960       C  0.82308842  0.82462794  0.92567093     0.95700
C1961       C  0.82655831  0.82607464  0.73821551     0.95500
N1962       N  0.79484657  0.70867853  0.78589463    -0.06600
N1963       N  0.79831393  0.69070022  0.75572967    -0.59200
N1964       N  0.81495541  0.72863356  0.87672133    -0.04800
N1965       N  0.83278457  0.72459042  0.90678730    -0.60400
N1966       N  0.79399307  0.70867724  0.87682259    -0.06700
N1967       N  0.79704204  0.69066153  0.90709276    -0.59400
N1968       N  0.81582327  0.72861814  0.78611115    -0.04400
N1969       N  0.83407959  0.72460809  0.75619677    -0.60500
Mn1970     Mn  0.81712729  0.76310939  0.83126980     1.18400
C1971       C  0.82296771  0.70080300  0.73781370     0.97800
C1972       C  0.82141861  0.70078821  0.92521284     0.98500
N1973       N  0.72789227  0.82017860  0.78489052    -0.06700
N1974       N  0.72437911  0.83851299  0.75505649    -0.63000
N1975       N  0.70655840  0.80014664  0.87597551    -0.05500
N1976       N  0.68873739  0.80404427  0.90641126    -0.63700
N1977       N  0.72751053  0.82011555  0.87579655    -0.06200
N1978       N  0.72447710  0.83798711  0.90614911    -0.63300
N1979       N  0.70687262  0.80026471  0.78520959    -0.05100
N1980       N  0.68861474  0.80463458  0.75566235    -0.64000
Mn1981     Mn  0.76232595  0.82038753  0.83048065     1.10700
C1982       C  0.69965737  0.82867830  0.73742654     0.99000
C1983       C  0.70016989  0.82775957  0.92471299     0.99100
N1984       N  0.72503195  0.71012005  0.87610225    -0.06200
N1985       N  0.72092702  0.69207860  0.90611639    -0.61600
N1986       N  0.70560427  0.73118375  0.78530602    -0.05500
N1987       N  0.68763750  0.72799000  0.75521383    -0.58300
N1988       N  0.72560411  0.71024821  0.78535436    -0.06800
N1989       N  0.72164537  0.69231656  0.75528686    -0.61100
N1990       N  0.70497558  0.73098608  0.87617961    -0.05800
N1991       N  0.68674321  0.72756590  0.90631985    -0.58300
Mn1992     Mn  0.75983961  0.70840367  0.83100307     1.20200
Mn1993     Mn  0.70496700  0.76566125  0.83067910     1.10100
Cl1994     Cl  0.76105498  0.76439329  0.83075531    -0.86300
C1995       C  0.69687092  0.70309714  0.92438312     0.96000
C1996       C  0.69782180  0.70360755  0.73703449     0.95800
C1997       C  0.63244797  0.61244771  0.68945318    -0.26700
C1998       C  0.62838061  0.63759278  0.66601936    -0.14700
C1999       C  0.60235656  0.64008320  0.97670681     0.35900
C2000       C  0.58272403  0.61638293  0.97552460    -0.26100
C2001       C  0.58675859  0.59126512  0.99895877    -0.15300
C2002       C  0.61164576  0.58973785  0.69053785     0.37000
N2003       N  0.61619555  0.56618380  0.71813046    -0.89600
H2004       H  0.65195677  0.61050314  0.70748263     0.18100
H2005       H  0.56343345  0.61802951  0.95701523     0.18100
N2006       N  0.59457159  0.66638955  0.95555097    -0.88600
H2007       H  0.63433841  0.55398342  0.70841268     0.35500
H2008       H  0.59818439  0.55203084  0.71983128     0.40600
H2009       H  0.60853928  0.68379578  0.96236428     0.40200
H2010       H  0.57386698  0.67308212  0.96578570     0.35100
C2011       C  0.93804376  0.61572030  0.97122786    -0.26700
C2012       C  0.93458172  0.59078415  0.99511190    -0.14700
C2013       C  0.91013773  0.58885417  0.68729367     0.35900
C2014       C  0.88899102  0.61126500  0.68740148    -0.26100
C2015       C  0.89226811  0.63630150  0.66341942    -0.15300
C2016       C  0.91784427  0.63898922  0.97267311     0.37000
N2017       N  0.92464806  0.66509977  0.95039013    -0.89600
H2018       H  0.95721010  0.61753012  0.95217748     0.18100
H2019       H  0.86978979  0.60899524  0.70628811     0.18100
N2020       N  0.90694348  0.56430877  0.71345492    -0.88600
H2021       H  0.94538125  0.67239492  0.95933576     0.35500
H2022       H  0.91042645  0.68230393  0.95743776     0.40600
H2023       H  0.90601055  0.57232828  0.74228776     0.40200
H2024       H  0.88687567  0.55405799  0.70744463     0.35100
C2025       C  0.61043374  0.94153225  0.68442068    -0.26700
C2026       C  0.58738996  0.93862228  0.99065701    -0.14700
C2027       C  0.58675920  0.91369597  0.96566456     0.35900
C2028       C  0.60861484  0.89218211  0.96929338    -0.26100
C2029       C  0.63196711  0.89529938  0.66261060    -0.15300
C2030       C  0.63310116  0.92060565  0.68665331     0.37000
N2031       N  0.65757207  0.92538775  0.71250797    -0.89600
H2032       H  0.61096345  0.96060018  0.70350638     0.18100
H2033       H  0.60753013  0.87296591  0.95053175     0.18100
N2034       N  0.56503243  0.90980805  0.93548420    -0.88600
H2035       H  0.65497063  0.94502765  0.72810925     0.35500
H2036       H  0.67640816  0.92788937  0.69495034     0.40600
H2037       H  0.55158618  0.92821399  0.93226153     0.40200
H2038       H  0.55160554  0.89215913  0.94377515     0.35100
C2039       C  0.91317335  0.89229648  0.96747983    -0.26700
C2040       C  0.88895024  0.89582209  0.65970269    -0.14700
C2041       C  0.88667631  0.92197705  0.68224532     0.35900
C2042       C  0.90986008  0.94229764  0.68116581    -0.26100
C2043       C  0.93402851  0.93874948  0.98890111    -0.15300
C2044       C  0.93515809  0.91372904  0.96415133     0.37000
N2045       N  0.95756205  0.90965917  0.93451925    -0.89600
H2046       H  0.91490561  0.87272755  0.94943545     0.18100
H2047       H  0.90850547  0.96168290  0.69962884     0.18100
N2048       N  0.86102789  0.92924759  0.70540580    -0.88600
H2049       H  0.97078272  0.89204416  0.94326790     0.35500
H2050       H  0.97107788  0.92804830  0.93141314     0.40600
H2051       H  0.84381858  0.91461303  0.70037790     0.40200
H2052       H  0.85322927  0.94952604  0.69534349     0.35100
loop_ 
_geom_bond_atom_site_label_1 
_geom_bond_atom_site_label_2 
_geom_bond_distance 
_geom_bond_site_symmetry_2 
_ccdc_geom_bond_type 
C1            C6   1.408   1_556  A
C1          C344   1.405       .  A
C1          C159   1.487       .  S
C2            C3   1.399       .  A
C2          C172   1.405       .  A
C2            H7   1.084       .  S
C3            C4   1.399       .  A
C3           C79   1.462       .  S
C4          C176   1.400       .  A
C4            H8   1.084       .  S
C5            C6   1.403       .  A
C5          C346   1.400   1_554  A
C5           C80   1.466       .  S
C6            H9   1.084       .  S
C10          C15   1.409   1_556  A
C10         C353   1.406       .  A
C10         C148   1.490       .  S
C11          C12   1.399       .  A
C11         C181   1.406       .  A
C11          H16   1.084       .  S
C12          C13   1.399       .  A
C12         C102   1.462       .  S
C13         C185   1.400       .  A
C13          H17   1.084       .  S
C14          C15   1.403       .  A
C14         C355   1.400   1_554  A
C14         C101   1.467       .  S
C15          H18   1.083       .  S
C19          C24   1.405   1_556  A
C19         C362   1.407       .  A
C19         C134   1.485       .  S
C20          C21   1.401       .  A
C20         C190   1.407       .  A
C20          H25   1.084       .  S
C21          C22   1.399       .  A
C21          C91   1.464       .  S
C22         C194   1.399       .  A
C22          H26   1.084       .  S
C23          C24   1.400       .  A
C23         C364   1.399   1_554  A
C23          C90   1.461       .  S
C24          H27   1.084       .  S
N28          C33   1.351       .  A
N28        C1058   1.352   1_455  A
N28          H60   1.042       .  S
N29          C37   1.349       .  A
N29         C549   1.349   1_545  A
N30          C35   1.352       .  A
N30        C1060   1.351   1_455  A
N30          H61   1.042       .  S
N31          C39   1.350       .  A
N31         C551   1.350   1_545  A
C32          C40   1.387       .  A
C32          C48   1.415       .  A
C32        N1054   1.352       .  A
C33          C49   1.415       .  A
C33          C41   1.387       .  A
C34          C42   1.386       .  A
C34          C51   1.412       .  A
C34        N1056   1.351       .  A
C35          C50   1.414       .  A
C35          C43   1.388       .  A
C36          C48   1.411       .  A
C36         C557   1.386       .  A
C36         N542   1.349       .  A
C37          C51   1.410       .  A
C37          C45   1.386       .  A
C38          C49   1.413       .  A
C38         C559   1.387       .  A
C38         N544   1.350       .  A
C39          C47   1.386       .  A
C39          C50   1.413       .  A
C40        C1067   1.378       .  A
C40          H52   1.082       .  S
C41        C1066   1.378   1_455  A
C41          H53   1.082       .  S
C42        C1069   1.376       .  A
C42          H54   1.082       .  S
C43        C1068   1.376   1_455  A
C43          H55   1.082       .  S
C44          C45   1.374       .  A
C44         C549   1.386   1_545  A
C44         H569   1.082   1_545  S
C45          H57   1.082       .  S
C46          C47   1.376       .  A
C46         C551   1.387   1_545  A
C46         H571   1.082   1_545  S
C47          H59   1.082       .  S
C48         C162   1.493       .  S
C49         C145   1.492       .  S
C50         C120   1.493       .  S
C51         C131   1.487       .  S
H56         C557   1.082       .  S
H58         C559   1.082       .  S
C62          C67   1.406   1_556  A
C62         C405   1.406       .  A
C62         C117   1.486       .  S
C63          C64   1.400       .  A
C63         C233   1.406       .  A
C63          H68   1.084       .  S
C64          C65   1.399       .  A
C64         C114   1.463       .  S
C65         C237   1.399       .  A
C65          H69   1.084       .  S
C66          C67   1.401       .  A
C66         C407   1.399   1_554  A
C66         C115   1.463       .  S
C67          H70   1.084       .  S
N71          N72   1.320       .  A
N71          N77   1.316       .  A
N71        Mn100   2.200       .  S
N72          C79   1.351       .  A
N73          N75   1.316       .  A
N73          N74   1.322       .  A
N73         Mn89   2.206       .  S
N74          C80   1.352       .  A
N75          N76   1.320       .  A
N75        Mn100   2.202       .  S
N76          C80   1.351       .  A
N77          N78   1.320       .  A
N77         Mn89   2.199       .  S
N78          C79   1.351       .  A
N81          N87   1.316       .  A
N81          N82   1.320       .  A
N81        Mn111   2.200       .  S
N82          C90   1.351       .  A
N83          N84   1.320       .  A
N83          N85   1.316       .  A
N83         Mn89   2.200       .  S
N84          C91   1.351       .  A
N85          N86   1.321       .  A
N85        Mn111   2.204       .  S
N86          C91   1.352       .  A
N87          N88   1.320       .  A
N87         Mn89   2.196       .  S
N88          C90   1.350       .  A
Mn89       Cl113   2.548       .  S
N92          N93   1.322       .  A
N92          N98   1.316       .  A
N92        Mn100   2.208       .  S
N93         C101   1.353       .  A
N94          N96   1.316       .  A
N94          N95   1.320       .  A
N94        Mn112   2.200       .  S
N95         C102   1.351       .  A
N96          N97   1.320       .  A
N96        Mn100   2.199       .  S
N97         C102   1.350       .  A
N98          N99   1.321       .  A
N98        Mn112   2.204       .  S
N99         C101   1.351       .  A
Mn100      Cl113   2.548       .  S
N103        N104   1.320       .  A
N103        N109   1.316       .  A
N103       Mn111   2.195       .  S
N104        C114   1.350       .  A
N105        N106   1.320       .  A
N105        N107   1.316       .  A
N105       Mn112   2.200       .  S
N106        C115   1.350       .  A
N107        N108   1.321       .  A
N107       Mn111   2.204       .  S
N108        C115   1.352       .  A
N109        N110   1.321       .  A
N109       Mn112   2.206       .  S
N110        C114   1.352       .  A
Mn111      Cl113   2.548       .  S
Mn112      Cl113   2.549       .  S
C116        C117   1.405   1_554  A
C116        C121   1.401       .  A
C116        H123   1.084       .  S
C117        C460   1.419       .  A
C118        C119   1.400       .  A
C118        C288   1.419       .  A
C118        N125   1.440       .  S
C119        C120   1.404       .  A
C119        H124   1.084       .  S
C120        C292   1.418       .  A
C121        C462   1.418   1_554  A
C121        N122   1.438       .  S
N122        H126   1.045       .  S
N122        H127   1.043       .  S
N125        H128   1.042       .  S
N125        H129   1.046       .  S
C130        C131   1.402       .  A
C130        C135   1.402       .  A
C130        H137   1.084       .  S
C131        C303   1.406       .  A
C132        C133   1.401       .  A
C132        C473   1.406   1_554  A
C132        N139   1.433       .  S
C133        C134   1.406   1_554  A
C133        H138   1.084       .  S
C134        C477   1.421       .  A
C135        C305   1.421       .  A
C135        N136   1.440       .  S
N136        H140   1.046       .  S
N136        H141   1.042       .  S
N139        H142   1.046       .  S
N139        H143   1.046       .  S
C144        C149   1.405       .  A
C144        C487   1.405   1_554  A
C144        H151   1.084       .  S
C145        C146   1.418       .  A
C145        C315   1.405       .  A
C146        C147   1.400       .  A
C146        N153   1.438       .  S
C147        C319   1.406       .  A
C147        H152   1.084       .  S
C148        C149   1.413   1_556  A
C148        C489   1.406       .  A
C149        N150   1.438       .  S
N150        H154   1.046       .  S
N150        H155   1.046       .  S
N153        H156   1.043       .  S
N153        H157   1.046       .  S
C158        C163   1.400       .  A
C158        C330   1.406       .  A
C158        H165   1.084       .  S
C159        C160   1.419   1_556  A
C159        C500   1.406       .  A
C160        C161   1.402       .  A
C160        N167   1.440       .  S
C161        C504   1.405   1_554  A
C161        H166   1.084       .  S
C162        C163   1.416       .  A
C162        C332   1.405       .  A
C163        N164   1.438       .  S
N164        H168   1.045       .  S
N164        H169   1.043       .  S
N167        H170   1.042       .  S
N167        H171   1.046       .  S
C172        C177   1.408       .  A
C172        C330   1.487       .  S
C173        C343   1.405       .  A
C173        C174   1.399       .  A
C173        H178   1.084       .  S
C174        C175   1.399       .  A
C174        C250   1.462       .  S
C175        C347   1.400       .  A
C175        H179   1.084       .  S
C176        C177   1.403       .  A
C176        C251   1.466       .  S
C177        H180   1.084       .  S
C181        C186   1.409       .  A
C181        C319   1.490       .  S
C182        C352   1.406       .  A
C182        C183   1.399       .  A
C182        H187   1.084       .  S
C183        C184   1.399       .  A
C183        C273   1.462       .  S
C184        C356   1.400       .  A
C184        H188   1.084       .  S
C185        C186   1.403       .  A
C185        C272   1.467       .  S
C186        H189   1.083       .  S
C190        C195   1.405       .  A
C190        C305   1.485       .  S
C191        C361   1.407       .  A
C191        C192   1.401       .  A
C191        H196   1.084       .  S
C192        C193   1.399       .  A
C192        C262   1.464       .  S
C193        C365   1.399       .  A
C193        H197   1.084       .  S
C194        C195   1.400       .  A
C194        C261   1.461       .  S
C195        H198   1.084       .  S
N199        C204   1.351       .  A
N199       C1229   1.352   1_455  A
N199        H231   1.042       .  S
N200        C720   1.349   1_545  A
N200        C208   1.349       .  A
N201        C206   1.352       .  A
N201       C1231   1.351   1_455  A
N201        H232   1.042       .  S
N202        C722   1.350   1_545  A
N202        C210   1.350       .  A
C203        C211   1.387       .  A
C203        C219   1.415       .  A
C203       N1225   1.352       .  A
C204        C220   1.415       .  A
C204        C212   1.387       .  A
C205        C213   1.386       .  A
C205        C222   1.412       .  A
C205       N1227   1.351       .  A
C206        C221   1.414       .  A
C206        C214   1.388       .  A
C207        C219   1.411       .  A
C207        C728   1.386       .  A
C207        N713   1.349       .  A
C208        C222   1.410       .  A
C208        C216   1.386       .  A
C209        C730   1.387       .  A
C209        C220   1.413       .  A
C209        N715   1.350       .  A
C210        C218   1.386       .  A
C210        C221   1.413       .  A
C211       C1238   1.378       .  A
C211        H223   1.082       .  S
C212       C1237   1.378   1_455  A
C212        H224   1.082       .  S
C213       C1240   1.376       .  A
C213        H225   1.082       .  S
C214       C1239   1.376   1_455  A
C214        H226   1.082       .  S
C215        C720   1.386   1_545  A
C215        C216   1.374       .  A
C215        H740   1.082   1_545  S
C216        H228   1.082       .  S
C217        C722   1.387   1_545  A
C217        C218   1.376       .  A
C217        H742   1.082   1_545  S
C218        H230   1.082       .  S
C219        C333   1.493       .  S
C220        C316   1.492       .  S
C221        C291   1.493       .  S
C222        C302   1.487       .  S
H227        C728   1.082       .  S
H229        C730   1.082       .  S
C233        C238   1.406       .  A
C233        C288   1.486       .  S
C234        C404   1.406       .  A
C234        C235   1.400       .  A
C234        H239   1.084       .  S
C235        C236   1.399       .  A
C235        C285   1.463       .  S
C236        C408   1.399       .  A
C236        H240   1.084       .  S
C237        C238   1.401       .  A
C237        C286   1.463       .  S
C238        H241   1.084       .  S
N242        N243   1.320       .  A
N242        N248   1.316       .  A
N242       Mn271   2.200       .  S
N243        C250   1.351       .  A
N244        N246   1.316       .  A
N244        N245   1.322       .  A
N244       Mn260   2.206       .  S
N245        C251   1.352       .  A
N246        N247   1.320       .  A
N246       Mn271   2.202       .  S
N247        C251   1.351       .  A
N248        N249   1.320       .  A
N248       Mn260   2.199       .  S
N249        C250   1.351       .  A
N252        N258   1.316       .  A
N252        N253   1.320       .  A
N252       Mn282   2.200       .  S
N253        C261   1.351       .  A
N254        N255   1.320       .  A
N254        N256   1.316       .  A
N254       Mn260   2.200       .  S
N255        C262   1.351       .  A
N256        N257   1.321       .  A
N256       Mn282   2.204       .  S
N257        C262   1.352       .  A
N258        N259   1.320       .  A
N258       Mn260   2.196       .  S
N259        C261   1.350       .  A
Mn260      Cl284   2.548       .  S
N263        N264   1.322       .  A
N263        N269   1.316       .  A
N263       Mn271   2.208       .  S
N264        C272   1.353       .  A
N265        N267   1.316       .  A
N265        N266   1.320       .  A
N265       Mn283   2.200       .  S
N266        C273   1.351       .  A
N267        N268   1.320       .  A
N267       Mn271   2.199       .  S
N268        C273   1.350       .  A
N269        N270   1.321       .  A
N269       Mn283   2.204       .  S
N270        C272   1.351       .  A
Mn271      Cl284   2.548       .  S
N274        N275   1.320       .  A
N274        N280   1.316       .  A
N274       Mn282   2.195       .  S
N275        C285   1.350       .  A
N276        N277   1.320       .  A
N276        N278   1.316       .  A
N276       Mn283   2.200       .  S
N277        C286   1.350       .  A
N278        N279   1.321       .  A
N278       Mn282   2.204       .  S
N279        C286   1.352       .  A
N280        N281   1.321       .  A
N280       Mn283   2.206       .  S
N281        C285   1.352       .  A
Mn282      Cl284   2.548       .  S
Mn283      Cl284   2.549       .  S
C287        C288   1.405       .  A
C287        C292   1.401       .  A
C287        H294   1.084       .  S
C289        C459   1.419       .  A
C289        C290   1.400       .  A
C289        N296   1.440       .  S
C290        C291   1.404       .  A
C290        H295   1.084       .  S
C291        C463   1.418       .  A
C292        N293   1.438       .  S
N293        H297   1.045       .  S
N293        H298   1.043       .  S
N296        H299   1.042       .  S
N296        H300   1.046       .  S
C301        C302   1.402       .  A
C301        C306   1.402       .  A
C301        H308   1.084       .  S
C302        C474   1.406       .  A
C303        C304   1.401       .  A
C303        N310   1.433       .  S
C304        C305   1.406       .  A
C304        H309   1.084       .  S
C306        C476   1.421       .  A
C306        N307   1.440       .  S
N307        H311   1.046       .  S
N307        H312   1.042       .  S
N310        H313   1.046       .  S
N310        H314   1.046       .  S
C315        C320   1.405       .  A
C315        H322   1.084       .  S
C316        C486   1.405       .  A
C316        C317   1.418       .  A
C317        C318   1.400       .  A
C317        N324   1.438       .  S
C318        C490   1.406       .  A
C318        H323   1.084       .  S
C319        C320   1.413       .  A
C320        N321   1.438       .  S
N321        H325   1.046       .  S
N321        H326   1.046       .  S
N324        H327   1.043       .  S
N324        H328   1.046       .  S
C329        C501   1.406       .  A
C329        C334   1.400       .  A
C329        H336   1.084       .  S
C330        C331   1.419       .  A
C331        C332   1.402       .  A
C331        N338   1.440       .  S
C332        H337   1.084       .  S
C333        C503   1.405       .  A
C333        C334   1.416       .  A
C334        N335   1.438       .  S
N335        H339   1.045       .  S
N335        H340   1.043       .  S
N338        H341   1.042       .  S
N338        H342   1.046       .  S
C343        C348   1.408       .  A
C343        C501   1.487       .  S
C344        C345   1.399       .  A
C344        H349   1.084       .  S
C345        C346   1.399       .  A
C345        C421   1.462       .  S
C346        H350   1.084       .  S
C347        C348   1.403       .  A
C347        C422   1.466       .  S
C348        H351   1.084       .  S
C352        C357   1.409       .  A
C352        C490   1.490       .  S
C353        C354   1.399       .  A
C353        H358   1.084       .  S
C354        C355   1.399       .  A
C354        C444   1.462       .  S
C355        H359   1.084       .  S
C356        C357   1.403       .  A
C356        C443   1.467       .  S
C357        H360   1.083       .  S
C361        C366   1.405       .  A
C361        C476   1.485       .  S
C362        C363   1.401       .  A
C362        H367   1.084       .  S
C363        C364   1.399       .  A
C363        C433   1.464       .  S
C364        H368   1.084       .  S
C365        C366   1.400       .  A
C365        C432   1.461       .  S
C366        H369   1.084       .  S
N370        C375   1.351       .  A
N370       C1400   1.352   1_455  A
N370        H402   1.042       .  S
N371        C891   1.349   1_545  A
N371        C379   1.349       .  A
N372        C377   1.352   1_556  A
N372       C1402   1.351   1_456  A
N372        H403   1.042       .  S
N373        C893   1.350   1_545  A
N373        C381   1.350       .  A
C374        C382   1.387   1_556  A
C374        C390   1.415       .  A
C374       N1396   1.352       .  A
C375        C391   1.415       .  A
C375        C383   1.387   1_556  A
C376        C384   1.386       .  A
C376        C393   1.412   1_554  A
C376       N1398   1.351   1_554  A
C377        C392   1.414   1_554  A
C377        C385   1.388       .  A
C378        C390   1.411       .  A
C378        C899   1.386       .  A
C378        N884   1.349       .  A
C379        C393   1.410       .  A
C379        C387   1.386       .  A
C380        C901   1.387       .  A
C380        C391   1.413       .  A
C380        N886   1.350       .  A
C381        C389   1.386       .  A
C381        C392   1.413       .  A
C382       C1409   1.378       .  A
C382        H394   1.082       .  S
C383       C1408   1.378   1_455  A
C383        H395   1.082       .  S
C384       C1411   1.376       .  A
C384        H396   1.082       .  S
C385       C1410   1.376   1_455  A
C385        H397   1.082       .  S
C386        C891   1.386   1_545  A
C386        C387   1.374       .  A
C386        H911   1.082   1_545  S
C387        H399   1.082       .  S
C388        C893   1.387   1_545  A
C388        C389   1.376       .  A
C388        H913   1.082   1_545  S
C389        H401   1.082       .  S
C390        C504   1.493       .  S
C391        C487   1.492       .  S
C392        C462   1.493       .  S
C393        C473   1.487       .  S
H398        C899   1.082       .  S
H400        C901   1.082       .  S
C404        C409   1.406       .  A
C404        C459   1.486       .  S
C405        C406   1.400       .  A
C405        H410   1.084       .  S
C406        C407   1.399       .  A
C406        C456   1.463       .  S
C407        H411   1.084       .  S
C408        C409   1.401       .  A
C408        C457   1.463       .  S
C409        H412   1.084       .  S
N413        N414   1.320       .  A
N413        N419   1.316       .  A
N413       Mn442   2.200       .  S
N414        C421   1.351       .  A
N415        N417   1.316       .  A
N415        N416   1.322       .  A
N415       Mn431   2.206       .  S
N416        C422   1.352       .  A
N417        N418   1.320       .  A
N417       Mn442   2.202       .  S
N418        C422   1.351       .  A
N419        N420   1.320       .  A
N419       Mn431   2.199       .  S
N420        C421   1.351       .  A
N423        N429   1.316       .  A
N423        N424   1.320       .  A
N423       Mn453   2.200       .  S
N424        C432   1.351       .  A
N425        N426   1.320       .  A
N425        N427   1.316       .  A
N425       Mn431   2.200       .  S
N426        C433   1.351       .  A
N427        N428   1.321       .  A
N427       Mn453   2.204       .  S
N428        C433   1.352       .  A
N429        N430   1.320       .  A
N429       Mn431   2.196       .  S
N430        C432   1.350       .  A
Mn431      Cl455   2.548       .  S
N434        N435   1.322       .  A
N434        N440   1.316       .  A
N434       Mn442   2.208       .  S
N435        C443   1.353       .  A
N436        N438   1.316       .  A
N436        N437   1.320       .  A
N436       Mn454   2.200       .  S
N437        C444   1.351       .  A
N438        N439   1.320       .  A
N438       Mn442   2.199       .  S
N439        C444   1.350       .  A
N440        N441   1.321       .  A
N440       Mn454   2.204       .  S
N441        C443   1.351       .  A
Mn442      Cl455   2.548       .  S
N445        N446   1.320       .  A
N445        N451   1.316       .  A
N445       Mn453   2.195       .  S
N446        C456   1.350       .  A
N447        N448   1.320       .  A
N447        N449   1.316       .  A
N447       Mn454   2.200       .  S
N448        C457   1.350       .  A
N449        N450   1.321       .  A
N449       Mn453   2.204       .  S
N450        C457   1.352       .  A
N451        N452   1.321       .  A
N451       Mn454   2.206       .  S
N452        C456   1.352       .  A
Mn453      Cl455   2.548       .  S
Mn454      Cl455   2.549       .  S
C458        C459   1.405       .  A
C458        C463   1.401       .  A
C458        H465   1.084       .  S
C460        C461   1.400       .  A
C460        N467   1.440       .  S
C461        C462   1.404       .  A
C461        H466   1.084       .  S
C463        N464   1.438       .  S
N464        H468   1.045       .  S
N464        H469   1.043       .  S
N467        H470   1.042       .  S
N467        H471   1.046       .  S
C472        C473   1.402       .  A
C472        C477   1.402       .  A
C472        H479   1.084       .  S
C474        C475   1.401       .  A
C474        N481   1.433       .  S
C475        C476   1.406       .  A
C475        H480   1.084       .  S
C477        N478   1.440       .  S
N478        H482   1.046       .  S
N478        H483   1.042       .  S
N481        H484   1.046       .  S
N481        H485   1.046       .  S
C486        C491   1.405       .  A
C486        H493   1.084       .  S
C487        C488   1.418       .  A
C488        C489   1.400       .  A
C488        N495   1.438       .  S
C489        H494   1.084       .  S
C490        C491   1.413       .  A
C491        N492   1.438       .  S
N492        H496   1.046       .  S
N492        H497   1.046       .  S
N495        H498   1.043       .  S
N495        H499   1.046       .  S
C500        C505   1.400       .  A
C500        H507   1.084       .  S
C501        C502   1.419       .  A
C502        C503   1.402       .  A
C502        N509   1.440       .  S
C503        H508   1.084       .  S
C504        C505   1.416       .  A
C505        N506   1.438       .  S
N506        H510   1.045       .  S
N506        H511   1.043       .  S
N509        H512   1.042       .  S
N509        H513   1.046       .  S
C514        C857   1.405       .  A
C514        C519   1.408   1_556  A
C514        C672   1.487       .  S
C515        C685   1.405       .  A
C515        C516   1.399       .  A
C515        H520   1.084       .  S
C516        C517   1.399       .  A
C516        C592   1.462       .  S
C517        C689   1.400       .  A
C517        H521   1.084       .  S
C518        C859   1.400   1_554  A
C518        C519   1.403       .  A
C518        C593   1.466       .  S
C519        H522   1.084       .  S
C523        C866   1.406       .  A
C523        C528   1.409   1_556  A
C523        C661   1.490       .  S
C524        C694   1.406       .  A
C524        C525   1.399       .  A
C524        H529   1.084       .  S
C525        C526   1.399       .  A
C525        C615   1.462       .  S
C526        C698   1.400       .  A
C526        H530   1.084       .  S
C527        C868   1.400   1_554  A
C527        C528   1.403       .  A
C527        C614   1.467       .  S
C528        H531   1.083       .  S
C532        C875   1.407       .  A
C532        C537   1.405   1_556  A
C532        C647   1.485       .  S
C533        C703   1.407       .  A
C533        C534   1.401       .  A
C533        H538   1.084       .  S
C534        C535   1.399       .  A
C534        C604   1.464       .  S
C535        C707   1.399       .  A
C535        H539   1.084       .  S
C536        C877   1.399   1_554  A
C536        C537   1.400       .  A
C536        C603   1.461       .  S
C537        H540   1.084       .  S
N541        C546   1.351       .  A
N541       C1571   1.352   1_455  A
N541        H573   1.042       .  S
N542        C550   1.349       .  A
N543        C548   1.352       .  A
N543       C1573   1.351   1_455  A
N543        H574   1.042       .  S
N544        C552   1.350       .  A
C545        C553   1.387       .  A
C545        C561   1.415       .  A
C545       N1567   1.352       .  A
C546        C562   1.415       .  A
C546        C554   1.387       .  A
C547        C555   1.386       .  A
C547        C564   1.412       .  A
C547       N1569   1.351       .  A
C548        C563   1.414       .  A
C548        C556   1.388       .  A
C549        C561   1.411       .  A
C550        C564   1.410       .  A
C550        C558   1.386       .  A
C551        C562   1.413       .  A
C552        C560   1.386       .  A
C552        C563   1.413       .  A
C553       C1580   1.378       .  A
C553        H565   1.082       .  S
C554       C1579   1.378   1_455  A
C554        H566   1.082       .  S
C555       C1582   1.376       .  A
C555        H567   1.082       .  S
C556       C1581   1.376   1_455  A
C556        H568   1.082       .  S
C557        C558   1.374       .  A
C558        H570   1.082       .  S
C559        C560   1.376       .  A
C560        H572   1.082       .  S
C561        C675   1.493       .  S
C562        C658   1.492       .  S
C563        C633   1.493       .  S
C564        C644   1.487       .  S
C575        C918   1.406       .  A
C575        C580   1.406   1_556  A
C575        C630   1.486       .  S
C576        C746   1.406       .  A
C576        C577   1.400       .  A
C576        H581   1.084       .  S
C577        C578   1.399       .  A
C577        C627   1.463       .  S
C578        C750   1.399       .  A
C578        H582   1.084       .  S
C579        C920   1.399   1_554  A
C579        C580   1.401       .  A
C579        C628   1.463       .  S
C580        H583   1.084       .  S
N584        N585   1.320       .  A
N584        N590   1.316       .  A
N584       Mn613   2.200       .  S
N585        C592   1.351       .  A
N586        N588   1.316       .  A
N586        N587   1.322       .  A
N586       Mn602   2.206       .  S
N587        C593   1.352       .  A
N588        N589   1.320       .  A
N588       Mn613   2.202       .  S
N589        C593   1.351       .  A
N590        N591   1.320       .  A
N590       Mn602   2.199       .  S
N591        C592   1.351       .  A
N594        N600   1.316       .  A
N594        N595   1.320       .  A
N594       Mn624   2.200       .  S
N595        C603   1.351       .  A
N596        N597   1.320       .  A
N596        N598   1.316       .  A
N596       Mn602   2.200       .  S
N597        C604   1.351       .  A
N598        N599   1.321       .  A
N598       Mn624   2.204       .  S
N599        C604   1.352       .  A
N600        N601   1.320       .  A
N600       Mn602   2.196       .  S
N601        C603   1.350       .  A
Mn602      Cl626   2.548       .  S
N605        N606   1.322       .  A
N605        N611   1.316       .  A
N605       Mn613   2.208       .  S
N606        C614   1.353       .  A
N607        N609   1.316       .  A
N607        N608   1.320       .  A
N607       Mn625   2.200       .  S
N608        C615   1.351       .  A
N609        N610   1.320       .  A
N609       Mn613   2.199       .  S
N610        C615   1.350       .  A
N611        N612   1.321       .  A
N611       Mn625   2.204       .  S
N612        C614   1.351       .  A
Mn613      Cl626   2.548       .  S
N616        N617   1.320       .  A
N616        N622   1.316       .  A
N616       Mn624   2.195       .  S
N617        C627   1.350       .  A
N618        N619   1.320       .  A
N618        N620   1.316       .  A
N618       Mn625   2.200       .  S
N619        C628   1.350       .  A
N620        N621   1.321       .  A
N620       Mn624   2.204       .  S
N621        C628   1.352       .  A
N622        N623   1.321       .  A
N622       Mn625   2.206       .  S
N623        C627   1.352       .  A
Mn624      Cl626   2.548       .  S
Mn625      Cl626   2.549       .  S
C629        C630   1.405   1_554  A
C629        C634   1.401       .  A
C629        H636   1.084       .  S
C630        C973   1.419       .  A
C631        C801   1.419       .  A
C631        C632   1.400       .  A
C631        N638   1.440       .  S
C632        C633   1.404       .  A
C632        H637   1.084       .  S
C633        C805   1.418       .  A
C634        C975   1.418   1_554  A
C634        N635   1.438       .  S
N635        H639   1.045       .  S
N635        H640   1.043       .  S
N638        H641   1.042       .  S
N638        H642   1.046       .  S
C643        C644   1.402       .  A
C643        C648   1.402       .  A
C643        H650   1.084       .  S
C644        C816   1.406       .  A
C645        C986   1.406   1_554  A
C645        C646   1.401       .  A
C645        N652   1.433       .  S
C646        C647   1.406   1_554  A
C646        H651   1.084       .  S
C647        C990   1.421       .  A
C648        C818   1.421       .  A
C648        N649   1.440       .  S
N649        H653   1.046       .  S
N649        H654   1.042       .  S
N652        H655   1.046       .  S
N652        H656   1.046       .  S
C657       C1000   1.405   1_554  A
C657        C662   1.405       .  A
C657        H664   1.084       .  S
C658        C828   1.405       .  A
C658        C659   1.418       .  A
C659        C660   1.400       .  A
C659        N666   1.438       .  S
C660        C832   1.406       .  A
C660        H665   1.084       .  S
C661       C1002   1.406       .  A
C661        C662   1.413   1_556  A
C662        N663   1.438       .  S
N663        H667   1.046       .  S
N663        H668   1.046       .  S
N666        H669   1.043       .  S
N666        H670   1.046       .  S
C671        C843   1.406       .  A
C671        C676   1.400       .  A
C671        H678   1.084       .  S
C672       C1013   1.406       .  A
C672        C673   1.419   1_556  A
C673        C674   1.402       .  A
C673        N680   1.440       .  S
C674       C1017   1.405   1_554  A
C674        H679   1.084       .  S
C675        C845   1.405       .  A
C675        C676   1.416       .  A
C676        N677   1.438       .  S
N677        H681   1.045       .  S
N677        H682   1.043       .  S
N680        H683   1.042       .  S
N680        H684   1.046       .  S
C685        C690   1.408       .  A
C685        C843   1.487       .  S
C686        C856   1.405       .  A
C686        C687   1.399       .  A
C686        H691   1.084       .  S
C687        C688   1.399       .  A
C687        C763   1.462       .  S
C688        C860   1.400       .  A
C688        H692   1.084       .  S
C689        C690   1.403       .  A
C689        C764   1.466       .  S
C690        H693   1.084       .  S
C694        C699   1.409       .  A
C694        C832   1.490       .  S
C695        C865   1.406       .  A
C695        C696   1.399       .  A
C695        H700   1.084       .  S
C696        C697   1.399       .  A
C696        C786   1.462       .  S
C697        C869   1.400       .  A
C697        H701   1.084       .  S
C698        C699   1.403       .  A
C698        C785   1.467       .  S
C699        H702   1.083       .  S
C703        C708   1.405       .  A
C703        C818   1.485       .  S
C704        C874   1.407       .  A
C704        C705   1.401       .  A
C704        H709   1.084       .  S
C705        C706   1.399       .  A
C705        C775   1.464       .  S
C706        C878   1.399       .  A
C706        H710   1.084       .  S
C707        C708   1.400       .  A
C707        C774   1.461       .  S
C708        H711   1.084       .  S
N712        C717   1.351       .  A
N712       C1742   1.352   1_455  A
N712        H744   1.042       .  S
N713        C721   1.349       .  A
N714        C719   1.352       .  A
N714       C1744   1.351   1_455  A
N714        H745   1.042       .  S
N715        C723   1.350       .  A
C716        C724   1.387       .  A
C716        C732   1.415       .  A
C716       N1738   1.352       .  A
C717        C733   1.415       .  A
C717        C725   1.387       .  A
C718        C726   1.386       .  A
C718        C735   1.412       .  A
C718       N1740   1.351       .  A
C719        C734   1.414       .  A
C719        C727   1.388       .  A
C720        C732   1.411       .  A
C721        C735   1.410       .  A
C721        C729   1.386       .  A
C722        C733   1.413       .  A
C723        C731   1.386       .  A
C723        C734   1.413       .  A
C724       C1751   1.378       .  A
C724        H736   1.082       .  S
C725       C1750   1.378   1_455  A
C725        H737   1.082       .  S
C726       C1753   1.376       .  A
C726        H738   1.082       .  S
C727       C1752   1.376   1_455  A
C727        H739   1.082       .  S
C728        C729   1.374       .  A
C729        H741   1.082       .  S
C730        C731   1.376       .  A
C731        H743   1.082       .  S
C732        C846   1.493       .  S
C733        C829   1.492       .  S
C734        C804   1.493       .  S
C735        C815   1.487       .  S
C746        C751   1.406       .  A
C746        C801   1.486       .  S
C747        C917   1.406       .  A
C747        C748   1.400       .  A
C747        H752   1.084       .  S
C748        C749   1.399       .  A
C748        C798   1.463       .  S
C749        C921   1.399       .  A
C749        H753   1.084       .  S
C750        C751   1.401       .  A
C750        C799   1.463       .  S
C751        H754   1.084       .  S
N755        N756   1.320       .  A
N755        N761   1.316       .  A
N755       Mn784   2.200       .  S
N756        C763   1.351       .  A
N757        N759   1.316       .  A
N757        N758   1.322       .  A
N757       Mn773   2.206       .  S
N758        C764   1.352       .  A
N759        N760   1.320       .  A
N759       Mn784   2.202       .  S
N760        C764   1.351       .  A
N761        N762   1.320       .  A
N761       Mn773   2.199       .  S
N762        C763   1.351       .  A
N765        N771   1.316       .  A
N765        N766   1.320       .  A
N765       Mn795   2.200       .  S
N766        C774   1.351       .  A
N767        N768   1.320       .  A
N767        N769   1.316       .  A
N767       Mn773   2.200       .  S
N768        C775   1.351       .  A
N769        N770   1.321       .  A
N769       Mn795   2.204       .  S
N770        C775   1.352       .  A
N771        N772   1.320       .  A
N771       Mn773   2.196       .  S
N772        C774   1.350       .  A
Mn773      Cl797   2.548       .  S
N776        N777   1.322       .  A
N776        N782   1.316       .  A
N776       Mn784   2.208       .  S
N777        C785   1.353       .  A
N778        N780   1.316       .  A
N778        N779   1.320       .  A
N778       Mn796   2.200       .  S
N779        C786   1.351       .  A
N780        N781   1.320       .  A
N780       Mn784   2.199       .  S
N781        C786   1.350       .  A
N782        N783   1.321       .  A
N782       Mn796   2.204       .  S
N783        C785   1.351       .  A
Mn784      Cl797   2.548       .  S
N787        N788   1.320       .  A
N787        N793   1.316       .  A
N787       Mn795   2.195       .  S
N788        C798   1.350       .  A
N789        N790   1.320       .  A
N789        N791   1.316       .  A
N789       Mn796   2.200       .  S
N790        C799   1.350       .  A
N791        N792   1.321       .  A
N791       Mn795   2.204       .  S
N792        C799   1.352       .  A
N793        N794   1.321       .  A
N793       Mn796   2.206       .  S
N794        C798   1.352       .  A
Mn795      Cl797   2.548       .  S
Mn796      Cl797   2.549       .  S
C800        C801   1.405       .  A
C800        C805   1.401       .  A
C800        H807   1.084       .  S
C802        C972   1.419       .  A
C802        C803   1.400       .  A
C802        N809   1.440       .  S
C803        C804   1.404       .  A
C803        H808   1.084       .  S
C804        C976   1.418       .  A
C805        N806   1.438       .  S
N806        H810   1.045       .  S
N806        H811   1.043       .  S
N809        H812   1.042       .  S
N809        H813   1.046       .  S
C814        C815   1.402       .  A
C814        C819   1.402       .  A
C814        H821   1.084       .  S
C815        C987   1.406       .  A
C816        C817   1.401       .  A
C816        N823   1.433       .  S
C817        C818   1.406       .  A
C817        H822   1.084       .  S
C819        C989   1.421       .  A
C819        N820   1.440       .  S
N820        H824   1.046       .  S
N820        H825   1.042       .  S
N823        H826   1.046       .  S
N823        H827   1.046       .  S
C828        C833   1.405       .  A
C828        H835   1.084       .  S
C829        C999   1.405       .  A
C829        C830   1.418       .  A
C830        C831   1.400       .  A
C830        N837   1.438       .  S
C831       C1003   1.406       .  A
C831        H836   1.084       .  S
C832        C833   1.413       .  A
C833        N834   1.438       .  S
N834        H838   1.046       .  S
N834        H839   1.046       .  S
N837        H840   1.043       .  S
N837        H841   1.046       .  S
C842       C1014   1.406       .  A
C842        C847   1.400       .  A
C842        H849   1.084       .  S
C843        C844   1.419       .  A
C844        C845   1.402       .  A
C844        N851   1.440       .  S
C845        H850   1.084       .  S
C846       C1016   1.405       .  A
C846        C847   1.416       .  A
C847        N848   1.438       .  S
N848        H852   1.045       .  S
N848        H853   1.043       .  S
N851        H854   1.042       .  S
N851        H855   1.046       .  S
C856        C861   1.408       .  A
C856       C1014   1.487       .  S
C857        C858   1.399       .  A
C857        H862   1.084       .  S
C858        C859   1.399       .  A
C858        C934   1.462       .  S
C859        H863   1.084       .  S
C860        C861   1.403       .  A
C860        C935   1.466       .  S
C861        H864   1.084       .  S
C865        C870   1.409       .  A
C865       C1003   1.490       .  S
C866        C867   1.399       .  A
C866        H871   1.084       .  S
C867        C868   1.399       .  A
C867        C957   1.462       .  S
C868        H872   1.084       .  S
C869        C870   1.403       .  A
C869        C956   1.467       .  S
C870        H873   1.083       .  S
C874        C879   1.405       .  A
C874        C989   1.485       .  S
C875        C876   1.401       .  A
C875        H880   1.084       .  S
C876        C877   1.399       .  A
C876        C946   1.464       .  S
C877        H881   1.084       .  S
C878        C879   1.400       .  A
C878        C945   1.461       .  S
C879        H882   1.084       .  S
N883        C888   1.351       .  A
N883       C1913   1.352   1_455  A
N883        H915   1.042       .  S
N884        C892   1.349       .  A
N885        C890   1.352   1_556  A
N885       C1915   1.351   1_456  A
N885        H916   1.042       .  S
N886        C894   1.350       .  A
C887        C895   1.387   1_556  A
C887        C903   1.415       .  A
C887       N1909   1.352       .  A
C888        C904   1.415       .  A
C888        C896   1.387   1_556  A
C889        C897   1.386       .  A
C889        C906   1.412   1_554  A
C889       N1911   1.351   1_554  A
C890        C905   1.414   1_554  A
C890        C898   1.388       .  A
C891        C903   1.411       .  A
C892        C906   1.410       .  A
C892        C900   1.386       .  A
C893        C904   1.413       .  A
C894        C902   1.386       .  A
C894        C905   1.413       .  A
C895       C1922   1.378       .  A
C895        H907   1.082       .  S
C896       C1921   1.378   1_455  A
C896        H908   1.082       .  S
C897       C1924   1.376       .  A
C897        H909   1.082       .  S
C898       C1923   1.376   1_455  A
C898        H910   1.082       .  S
C899        C900   1.374       .  A
C900        H912   1.082       .  S
C901        C902   1.376       .  A
C902        H914   1.082       .  S
C903       C1017   1.493       .  S
C904       C1000   1.492       .  S
C905        C975   1.493       .  S
C906        C986   1.487       .  S
C917        C922   1.406       .  A
C917        C972   1.486       .  S
C918        C919   1.400       .  A
C918        H923   1.084       .  S
C919        C920   1.399       .  A
C919        C969   1.463       .  S
C920        H924   1.084       .  S
C921        C922   1.401       .  A
C921        C970   1.463       .  S
C922        H925   1.084       .  S
N926        N927   1.320       .  A
N926        N932   1.316       .  A
N926       Mn955   2.200       .  S
N927        C934   1.351       .  A
N928        N930   1.316       .  A
N928        N929   1.322       .  A
N928       Mn944   2.206       .  S
N929        C935   1.352       .  A
N930        N931   1.320       .  A
N930       Mn955   2.202       .  S
N931        C935   1.351       .  A
N932        N933   1.320       .  A
N932       Mn944   2.199       .  S
N933        C934   1.351       .  A
N936        N942   1.316       .  A
N936        N937   1.320       .  A
N936       Mn966   2.200       .  S
N937        C945   1.351       .  A
N938        N939   1.320       .  A
N938        N940   1.316       .  A
N938       Mn944   2.200       .  S
N939        C946   1.351       .  A
N940        N941   1.321       .  A
N940       Mn966   2.204       .  S
N941        C946   1.352       .  A
N942        N943   1.320       .  A
N942       Mn944   2.196       .  S
N943        C945   1.350       .  A
Mn944      Cl968   2.548       .  S
N947        N948   1.322       .  A
N947        N953   1.316       .  A
N947       Mn955   2.208       .  S
N948        C956   1.353       .  A
N949        N951   1.316       .  A
N949        N950   1.320       .  A
N949       Mn967   2.200       .  S
N950        C957   1.351       .  A
N951        N952   1.320       .  A
N951       Mn955   2.199       .  S
N952        C957   1.350       .  A
N953        N954   1.321       .  A
N953       Mn967   2.204       .  S
N954        C956   1.351       .  A
Mn955      Cl968   2.548       .  S
N958        N959   1.320       .  A
N958        N964   1.316       .  A
N958       Mn966   2.195       .  S
N959        C969   1.350       .  A
N960        N961   1.320       .  A
N960        N962   1.316       .  A
N960       Mn967   2.200       .  S
N961        C970   1.350       .  A
N962        N963   1.321       .  A
N962       Mn966   2.204       .  S
N963        C970   1.352       .  A
N964        N965   1.321       .  A
N964       Mn967   2.206       .  S
N965        C969   1.352       .  A
Mn966      Cl968   2.548       .  S
Mn967      Cl968   2.549       .  S
C971        C972   1.405       .  A
C971        C976   1.401       .  A
C971        H978   1.084       .  S
C973        C974   1.400       .  A
C973        N980   1.440       .  S
C974        C975   1.404       .  A
C974        H979   1.084       .  S
C976        N977   1.438       .  S
N977        H981   1.045       .  S
N977        H982   1.043       .  S
N980        H983   1.042       .  S
N980        H984   1.046       .  S
C985        C986   1.402       .  A
C985        C990   1.402       .  A
C985        H992   1.084       .  S
C987        C988   1.401       .  A
C987        N994   1.433       .  S
C988        C989   1.406       .  A
C988        H993   1.084       .  S
C990        N991   1.440       .  S
N991        H995   1.046       .  S
N991        H996   1.042       .  S
N994        H997   1.046       .  S
N994        H998   1.046       .  S
C999       C1004   1.405       .  A
C999       H1006   1.084       .  S
C1000      C1001   1.418       .  A
C1001      C1002   1.400       .  A
C1001      N1008   1.438       .  S
C1002      H1007   1.084       .  S
C1003      C1004   1.413       .  A
C1004      N1005   1.438       .  S
N1005      H1009   1.046       .  S
N1005      H1010   1.046       .  S
N1008      H1011   1.043       .  S
N1008      H1012   1.046       .  S
C1013      C1018   1.400       .  A
C1013      H1020   1.084       .  S
C1014      C1015   1.419       .  A
C1015      C1016   1.402       .  A
C1015      N1022   1.440       .  S
C1016      H1021   1.084       .  S
C1017      C1018   1.416       .  A
C1018      N1019   1.438       .  S
N1019      H1023   1.045       .  S
N1019      H1024   1.043       .  S
N1022      H1025   1.042       .  S
N1022      H1026   1.046       .  S
C1027      C1370   1.405       .  A
C1027      C1032   1.408   1_556  A
C1027      C1185   1.487       .  S
C1028      C1198   1.405       .  A
C1028      C1029   1.399       .  A
C1028      H1033   1.084       .  S
C1029      C1030   1.399       .  A
C1029      C1105   1.462       .  S
C1030      C1202   1.400       .  A
C1030      H1034   1.084       .  S
C1031      C1372   1.400   1_554  A
C1031      C1032   1.403       .  A
C1031      C1106   1.466       .  S
C1032      H1035   1.084       .  S
C1036      C1379   1.406       .  A
C1036      C1041   1.409   1_556  A
C1036      C1174   1.490       .  S
C1037      C1207   1.406       .  A
C1037      C1038   1.399       .  A
C1037      H1042   1.084       .  S
C1038      C1039   1.399       .  A
C1038      C1128   1.462       .  S
C1039      C1211   1.400       .  A
C1039      H1043   1.084       .  S
C1040      C1381   1.400   1_554  A
C1040      C1041   1.403       .  A
C1040      C1127   1.467       .  S
C1041      H1044   1.083       .  S
C1045      C1388   1.407       .  A
C1045      C1050   1.405   1_556  A
C1045      C1160   1.485       .  S
C1046      C1216   1.407       .  A
C1046      C1047   1.401       .  A
C1046      H1051   1.084       .  S
C1047      C1048   1.399       .  A
C1047      C1117   1.464       .  S
C1048      C1220   1.399       .  A
C1048      H1052   1.084       .  S
C1049      C1390   1.399   1_554  A
C1049      C1050   1.400       .  A
C1049      C1116   1.461       .  S
C1050      H1053   1.084       .  S
N1054      C1059   1.351       .  A
N1054      H1086   1.042       .  S
N1055      C1575   1.349   1_545  A
N1055      C1063   1.349       .  A
N1056      C1061   1.352       .  A
N1056      H1087   1.042       .  S
N1057      C1577   1.350   1_545  A
N1057      C1065   1.350       .  A
C1058      C1066   1.387       .  A
C1058      C1074   1.415       .  A
C1059      C1075   1.415       .  A
C1059      C1067   1.387       .  A
C1060      C1068   1.386       .  A
C1060      C1077   1.412       .  A
C1061      C1076   1.414       .  A
C1061      C1069   1.388       .  A
C1062      C1074   1.411       .  A
C1062      C1583   1.386       .  A
C1062      N1568   1.349       .  A
C1063      C1077   1.410       .  A
C1063      C1071   1.386       .  A
C1064      C1585   1.387       .  A
C1064      C1075   1.413       .  A
C1064      N1570   1.350       .  A
C1065      C1073   1.386       .  A
C1065      C1076   1.413       .  A
C1066      H1078   1.082       .  S
C1067      H1079   1.082       .  S
C1068      H1080   1.082       .  S
C1069      H1081   1.082       .  S
C1070      C1575   1.386   1_545  A
C1070      C1071   1.374       .  A
C1070      H1595   1.082   1_545  S
C1071      H1083   1.082       .  S
C1072      C1577   1.387   1_545  A
C1072      C1073   1.376       .  A
C1072      H1597   1.082   1_545  S
C1073      H1085   1.082       .  S
C1074      C1188   1.493       .  S
C1075      C1171   1.492       .  S
C1076      C1146   1.493       .  S
C1077      C1157   1.487       .  S
H1082      C1583   1.082       .  S
H1084      C1585   1.082       .  S
C1088      C1431   1.406       .  A
C1088      C1093   1.406   1_556  A
C1088      C1143   1.486       .  S
C1089      C1259   1.406       .  A
C1089      C1090   1.400       .  A
C1089      H1094   1.084       .  S
C1090      C1091   1.399       .  A
C1090      C1140   1.463       .  S
C1091      C1263   1.399       .  A
C1091      H1095   1.084       .  S
C1092      C1433   1.399   1_554  A
C1092      C1093   1.401       .  A
C1092      C1141   1.463       .  S
C1093      H1096   1.084       .  S
N1097      N1098   1.320       .  A
N1097      N1103   1.316       .  A
N1097     Mn1126   2.200       .  S
N1098      C1105   1.351       .  A
N1099      N1101   1.316       .  A
N1099      N1100   1.322       .  A
N1099     Mn1115   2.206       .  S
N1100      C1106   1.352       .  A
N1101      N1102   1.320       .  A
N1101     Mn1126   2.202       .  S
N1102      C1106   1.351       .  A
N1103      N1104   1.320       .  A
N1103     Mn1115   2.199       .  S
N1104      C1105   1.351       .  A
N1107      N1113   1.316       .  A
N1107      N1108   1.320       .  A
N1107     Mn1137   2.200       .  S
N1108      C1116   1.351       .  A
N1109      N1110   1.320       .  A
N1109      N1111   1.316       .  A
N1109     Mn1115   2.200       .  S
N1110      C1117   1.351       .  A
N1111      N1112   1.321       .  A
N1111     Mn1137   2.204       .  S
N1112      C1117   1.352       .  A
N1113      N1114   1.320       .  A
N1113     Mn1115   2.196       .  S
N1114      C1116   1.350       .  A
Mn1115    Cl1139   2.548       .  S
N1118      N1119   1.322       .  A
N1118      N1124   1.316       .  A
N1118     Mn1126   2.208       .  S
N1119      C1127   1.353       .  A
N1120      N1122   1.316       .  A
N1120      N1121   1.320       .  A
N1120     Mn1138   2.200       .  S
N1121      C1128   1.351       .  A
N1122      N1123   1.320       .  A
N1122     Mn1126   2.199       .  S
N1123      C1128   1.350       .  A
N1124      N1125   1.321       .  A
N1124     Mn1138   2.204       .  S
N1125      C1127   1.351       .  A
Mn1126    Cl1139   2.548       .  S
N1129      N1130   1.320       .  A
N1129      N1135   1.316       .  A
N1129     Mn1137   2.195       .  S
N1130      C1140   1.350       .  A
N1131      N1132   1.320       .  A
N1131      N1133   1.316       .  A
N1131     Mn1138   2.200       .  S
N1132      C1141   1.350       .  A
N1133      N1134   1.321       .  A
N1133     Mn1137   2.204       .  S
N1134      C1141   1.352       .  A
N1135      N1136   1.321       .  A
N1135     Mn1138   2.206       .  S
N1136      C1140   1.352       .  A
Mn1137    Cl1139   2.548       .  S
Mn1138    Cl1139   2.549       .  S
C1142      C1143   1.405   1_554  A
C1142      C1147   1.401       .  A
C1142      H1149   1.084       .  S
C1143      C1486   1.419       .  A
C1144      C1314   1.419       .  A
C1144      C1145   1.400       .  A
C1144      N1151   1.440       .  S
C1145      C1146   1.404       .  A
C1145      H1150   1.084       .  S
C1146      C1318   1.418       .  A
C1147      C1488   1.418   1_554  A
C1147      N1148   1.438       .  S
N1148      H1152   1.045       .  S
N1148      H1153   1.043       .  S
N1151      H1154   1.042       .  S
N1151      H1155   1.046       .  S
C1156      C1157   1.402       .  A
C1156      C1161   1.402       .  A
C1156      H1163   1.084       .  S
C1157      C1329   1.406       .  A
C1158      C1499   1.406   1_554  A
C1158      C1159   1.401       .  A
C1158      N1165   1.433       .  S
C1159      C1160   1.406   1_554  A
C1159      H1164   1.084       .  S
C1160      C1503   1.421       .  A
C1161      C1331   1.421       .  A
C1161      N1162   1.440       .  S
N1162      H1166   1.046       .  S
N1162      H1167   1.042       .  S
N1165      H1168   1.046       .  S
N1165      H1169   1.046       .  S
C1170      C1513   1.405   1_554  A
C1170      C1175   1.405       .  A
C1170      H1177   1.084       .  S
C1171      C1341   1.405       .  A
C1171      C1172   1.418       .  A
C1172      C1173   1.400       .  A
C1172      N1179   1.438       .  S
C1173      C1345   1.406       .  A
C1173      H1178   1.084       .  S
C1174      C1515   1.406       .  A
C1174      C1175   1.413   1_556  A
C1175      N1176   1.438       .  S
N1176      H1180   1.046       .  S
N1176      H1181   1.046       .  S
N1179      H1182   1.043       .  S
N1179      H1183   1.046       .  S
C1184      C1356   1.406       .  A
C1184      C1189   1.400       .  A
C1184      H1191   1.084       .  S
C1185      C1526   1.406       .  A
C1185      C1186   1.419   1_556  A
C1186      C1187   1.402       .  A
C1186      N1193   1.440       .  S
C1187      C1530   1.405   1_554  A
C1187      H1192   1.084       .  S
C1188      C1358   1.405       .  A
C1188      C1189   1.416       .  A
C1189      N1190   1.438       .  S
N1190      H1194   1.045       .  S
N1190      H1195   1.043       .  S
N1193      H1196   1.042       .  S
N1193      H1197   1.046       .  S
C1198      C1203   1.408       .  A
C1198      C1356   1.487       .  S
C1199      C1369   1.405       .  A
C1199      C1200   1.399       .  A
C1199      H1204   1.084       .  S
C1200      C1201   1.399       .  A
C1200      C1276   1.462       .  S
C1201      C1373   1.400       .  A
C1201      H1205   1.084       .  S
C1202      C1203   1.403       .  A
C1202      C1277   1.466       .  S
C1203      H1206   1.084       .  S
C1207      C1212   1.409       .  A
C1207      C1345   1.490       .  S
C1208      C1378   1.406       .  A
C1208      C1209   1.399       .  A
C1208      H1213   1.084       .  S
C1209      C1210   1.399       .  A
C1209      C1299   1.462       .  S
C1210      C1382   1.400       .  A
C1210      H1214   1.084       .  S
C1211      C1212   1.403       .  A
C1211      C1298   1.467       .  S
C1212      H1215   1.083       .  S
C1216      C1221   1.405       .  A
C1216      C1331   1.485       .  S
C1217      C1387   1.407       .  A
C1217      C1218   1.401       .  A
C1217      H1222   1.084       .  S
C1218      C1219   1.399       .  A
C1218      C1288   1.464       .  S
C1219      C1391   1.399       .  A
C1219      H1223   1.084       .  S
C1220      C1221   1.400       .  A
C1220      C1287   1.461       .  S
C1221      H1224   1.084       .  S
N1225      C1230   1.351       .  A
N1225      H1257   1.042       .  S
N1226      C1746   1.349   1_545  A
N1226      C1234   1.349       .  A
N1227      C1232   1.352       .  A
N1227      H1258   1.042       .  S
N1228      C1748   1.350   1_545  A
N1228      C1236   1.350       .  A
C1229      C1237   1.387       .  A
C1229      C1245   1.415       .  A
C1230      C1246   1.415       .  A
C1230      C1238   1.387       .  A
C1231      C1239   1.386       .  A
C1231      C1248   1.412       .  A
C1232      C1247   1.414       .  A
C1232      C1240   1.388       .  A
C1233      C1245   1.411       .  A
C1233      C1754   1.386       .  A
C1233      N1739   1.349       .  A
C1234      C1248   1.410       .  A
C1234      C1242   1.386       .  A
C1235      C1756   1.387       .  A
C1235      C1246   1.413       .  A
C1235      N1741   1.350       .  A
C1236      C1244   1.386       .  A
C1236      C1247   1.413       .  A
C1237      H1249   1.082       .  S
C1238      H1250   1.082       .  S
C1239      H1251   1.082       .  S
C1240      H1252   1.082       .  S
C1241      C1746   1.386   1_545  A
C1241      C1242   1.374       .  A
C1241      H1766   1.082   1_545  S
C1242      H1254   1.082       .  S
C1243      C1748   1.387   1_545  A
C1243      C1244   1.376       .  A
C1243      H1768   1.082   1_545  S
C1244      H1256   1.082       .  S
C1245      C1359   1.493       .  S
C1246      C1342   1.492       .  S
C1247      C1317   1.493       .  S
C1248      C1328   1.487       .  S
H1253      C1754   1.082       .  S
H1255      C1756   1.082       .  S
C1259      C1264   1.406       .  A
C1259      C1314   1.486       .  S
C1260      C1430   1.406       .  A
C1260      C1261   1.400       .  A
C1260      H1265   1.084       .  S
C1261      C1262   1.399       .  A
C1261      C1311   1.463       .  S
C1262      C1434   1.399       .  A
C1262      H1266   1.084       .  S
C1263      C1264   1.401       .  A
C1263      C1312   1.463       .  S
C1264      H1267   1.084       .  S
N1268      N1269   1.320       .  A
N1268      N1274   1.316       .  A
N1268     Mn1297   2.200       .  S
N1269      C1276   1.351       .  A
N1270      N1272   1.316       .  A
N1270      N1271   1.322       .  A
N1270     Mn1286   2.206       .  S
N1271      C1277   1.352       .  A
N1272      N1273   1.320       .  A
N1272     Mn1297   2.202       .  S
N1273      C1277   1.351       .  A
N1274      N1275   1.320       .  A
N1274     Mn1286   2.199       .  S
N1275      C1276   1.351       .  A
N1278      N1284   1.316       .  A
N1278      N1279   1.320       .  A
N1278     Mn1308   2.200       .  S
N1279      C1287   1.351       .  A
N1280      N1281   1.320       .  A
N1280      N1282   1.316       .  A
N1280     Mn1286   2.200       .  S
N1281      C1288   1.351       .  A
N1282      N1283   1.321       .  A
N1282     Mn1308   2.204       .  S
N1283      C1288   1.352       .  A
N1284      N1285   1.320       .  A
N1284     Mn1286   2.196       .  S
N1285      C1287   1.350       .  A
Mn1286    Cl1310   2.548       .  S
N1289      N1290   1.322       .  A
N1289      N1295   1.316       .  A
N1289     Mn1297   2.208       .  S
N1290      C1298   1.353       .  A
N1291      N1293   1.316       .  A
N1291      N1292   1.320       .  A
N1291     Mn1309   2.200       .  S
N1292      C1299   1.351       .  A
N1293      N1294   1.320       .  A
N1293     Mn1297   2.199       .  S
N1294      C1299   1.350       .  A
N1295      N1296   1.321       .  A
N1295     Mn1309   2.204       .  S
N1296      C1298   1.351       .  A
Mn1297    Cl1310   2.548       .  S
N1300      N1301   1.320       .  A
N1300      N1306   1.316       .  A
N1300     Mn1308   2.195       .  S
N1301      C1311   1.350       .  A
N1302      N1303   1.320       .  A
N1302      N1304   1.316       .  A
N1302     Mn1309   2.200       .  S
N1303      C1312   1.350       .  A
N1304      N1305   1.321       .  A
N1304     Mn1308   2.204       .  S
N1305      C1312   1.352       .  A
N1306      N1307   1.321       .  A
N1306     Mn1309   2.206       .  S
N1307      C1311   1.352       .  A
Mn1308    Cl1310   2.548       .  S
Mn1309    Cl1310   2.549       .  S
C1313      C1314   1.405       .  A
C1313      C1318   1.401       .  A
C1313      H1320   1.084       .  S
C1315      C1485   1.419       .  A
C1315      C1316   1.400       .  A
C1315      N1322   1.440       .  S
C1316      C1317   1.404       .  A
C1316      H1321   1.084       .  S
C1317      C1489   1.418       .  A
C1318      N1319   1.438       .  S
N1319      H1323   1.045       .  S
N1319      H1324   1.043       .  S
N1322      H1325   1.042       .  S
N1322      H1326   1.046       .  S
C1327      C1328   1.402       .  A
C1327      C1332   1.402       .  A
C1327      H1334   1.084       .  S
C1328      C1500   1.406       .  A
C1329      C1330   1.401       .  A
C1329      N1336   1.433       .  S
C1330      C1331   1.406       .  A
C1330      H1335   1.084       .  S
C1332      C1502   1.421       .  A
C1332      N1333   1.440       .  S
N1333      H1337   1.046       .  S
N1333      H1338   1.042       .  S
N1336      H1339   1.046       .  S
N1336      H1340   1.046       .  S
C1341      C1346   1.405       .  A
C1341      H1348   1.084       .  S
C1342      C1512   1.405       .  A
C1342      C1343   1.418       .  A
C1343      C1344   1.400       .  A
C1343      N1350   1.438       .  S
C1344      C1516   1.406       .  A
C1344      H1349   1.084       .  S
C1345      C1346   1.413       .  A
C1346      N1347   1.438       .  S
N1347      H1351   1.046       .  S
N1347      H1352   1.046       .  S
N1350      H1353   1.043       .  S
N1350      H1354   1.046       .  S
C1355      C1527   1.406       .  A
C1355      C1360   1.400       .  A
C1355      H1362   1.084       .  S
C1356      C1357   1.419       .  A
C1357      C1358   1.402       .  A
C1357      N1364   1.440       .  S
C1358      H1363   1.084       .  S
C1359      C1529   1.405       .  A
C1359      C1360   1.416       .  A
C1360      N1361   1.438       .  S
N1361      H1365   1.045       .  S
N1361      H1366   1.043       .  S
N1364      H1367   1.042       .  S
N1364      H1368   1.046       .  S
C1369      C1374   1.408       .  A
C1369      C1527   1.487       .  S
C1370      C1371   1.399       .  A
C1370      H1375   1.084       .  S
C1371      C1372   1.399       .  A
C1371      C1447   1.462       .  S
C1372      H1376   1.084       .  S
C1373      C1374   1.403       .  A
C1373      C1448   1.466       .  S
C1374      H1377   1.084       .  S
C1378      C1383   1.409       .  A
C1378      C1516   1.490       .  S
C1379      C1380   1.399       .  A
C1379      H1384   1.084       .  S
C1380      C1381   1.399       .  A
C1380      C1470   1.462       .  S
C1381      H1385   1.084       .  S
C1382      C1383   1.403       .  A
C1382      C1469   1.467       .  S
C1383      H1386   1.083       .  S
C1387      C1392   1.405       .  A
C1387      C1502   1.485       .  S
C1388      C1389   1.401       .  A
C1388      H1393   1.084       .  S
C1389      C1390   1.399       .  A
C1389      C1459   1.464       .  S
C1390      H1394   1.084       .  S
C1391      C1392   1.400       .  A
C1391      C1458   1.461       .  S
C1392      H1395   1.084       .  S
N1396      C1401   1.351       .  A
N1396      H1428   1.042       .  S
N1397      C1917   1.349   1_545  A
N1397      C1405   1.349       .  A
N1398      C1403   1.352   1_556  A
N1398      H1429   1.042       .  S
N1399      C1919   1.350   1_545  A
N1399      C1407   1.350       .  A
C1400      C1408   1.387   1_556  A
C1400      C1416   1.415       .  A
C1401      C1417   1.415       .  A
C1401      C1409   1.387   1_556  A
C1402      C1410   1.386       .  A
C1402      C1419   1.412   1_554  A
C1403      C1418   1.414   1_554  A
C1403      C1411   1.388       .  A
C1404      C1416   1.411       .  A
C1404      C1925   1.386       .  A
C1404      N1910   1.349       .  A
C1405      C1419   1.410       .  A
C1405      C1413   1.386       .  A
C1406      C1927   1.387       .  A
C1406      C1417   1.413       .  A
C1406      N1912   1.350       .  A
C1407      C1415   1.386       .  A
C1407      C1418   1.413       .  A
C1408      H1420   1.082       .  S
C1409      H1421   1.082       .  S
C1410      H1422   1.082       .  S
C1411      H1423   1.082       .  S
C1412      C1917   1.386   1_545  A
C1412      C1413   1.374       .  A
C1412      H1937   1.082   1_545  S
C1413      H1425   1.082       .  S
C1414      C1919   1.387   1_545  A
C1414      C1415   1.376       .  A
C1414      H1939   1.082   1_545  S
C1415      H1427   1.082       .  S
C1416      C1530   1.493       .  S
C1417      C1513   1.492       .  S
C1418      C1488   1.493       .  S
C1419      C1499   1.487       .  S
H1424      C1925   1.082       .  S
H1426      C1927   1.082       .  S
C1430      C1435   1.406       .  A
C1430      C1485   1.486       .  S
C1431      C1432   1.400       .  A
C1431      H1436   1.084       .  S
C1432      C1433   1.399       .  A
C1432      C1482   1.463       .  S
C1433      H1437   1.084       .  S
C1434      C1435   1.401       .  A
C1434      C1483   1.463       .  S
C1435      H1438   1.084       .  S
N1439      N1440   1.320       .  A
N1439      N1445   1.316       .  A
N1439     Mn1468   2.200       .  S
N1440      C1447   1.351       .  A
N1441      N1443   1.316       .  A
N1441      N1442   1.322       .  A
N1441     Mn1457   2.206       .  S
N1442      C1448   1.352       .  A
N1443      N1444   1.320       .  A
N1443     Mn1468   2.202       .  S
N1444      C1448   1.351       .  A
N1445      N1446   1.320       .  A
N1445     Mn1457   2.199       .  S
N1446      C1447   1.351       .  A
N1449      N1455   1.316       .  A
N1449      N1450   1.320       .  A
N1449     Mn1479   2.200       .  S
N1450      C1458   1.351       .  A
N1451      N1452   1.320       .  A
N1451      N1453   1.316       .  A
N1451     Mn1457   2.200       .  S
N1452      C1459   1.351       .  A
N1453      N1454   1.321       .  A
N1453     Mn1479   2.204       .  S
N1454      C1459   1.352       .  A
N1455      N1456   1.320       .  A
N1455     Mn1457   2.196       .  S
N1456      C1458   1.350       .  A
Mn1457    Cl1481   2.548       .  S
N1460      N1461   1.322       .  A
N1460      N1466   1.316       .  A
N1460     Mn1468   2.208       .  S
N1461      C1469   1.353       .  A
N1462      N1464   1.316       .  A
N1462      N1463   1.320       .  A
N1462     Mn1480   2.200       .  S
N1463      C1470   1.351       .  A
N1464      N1465   1.320       .  A
N1464     Mn1468   2.199       .  S
N1465      C1470   1.350       .  A
N1466      N1467   1.321       .  A
N1466     Mn1480   2.204       .  S
N1467      C1469   1.351       .  A
Mn1468    Cl1481   2.548       .  S
N1471      N1472   1.320       .  A
N1471      N1477   1.316       .  A
N1471     Mn1479   2.195       .  S
N1472      C1482   1.350       .  A
N1473      N1474   1.320       .  A
N1473      N1475   1.316       .  A
N1473     Mn1480   2.200       .  S
N1474      C1483   1.350       .  A
N1475      N1476   1.321       .  A
N1475     Mn1479   2.204       .  S
N1476      C1483   1.352       .  A
N1477      N1478   1.321       .  A
N1477     Mn1480   2.206       .  S
N1478      C1482   1.352       .  A
Mn1479    Cl1481   2.548       .  S
Mn1480    Cl1481   2.549       .  S
C1484      C1485   1.405       .  A
C1484      C1489   1.401       .  A
C1484      H1491   1.084       .  S
C1486      C1487   1.400       .  A
C1486      N1493   1.440       .  S
C1487      C1488   1.404       .  A
C1487      H1492   1.084       .  S
C1489      N1490   1.438       .  S
N1490      H1494   1.045       .  S
N1490      H1495   1.043       .  S
N1493      H1496   1.042       .  S
N1493      H1497   1.046       .  S
C1498      C1499   1.402       .  A
C1498      C1503   1.402       .  A
C1498      H1505   1.084       .  S
C1500      C1501   1.401       .  A
C1500      N1507   1.433       .  S
C1501      C1502   1.406       .  A
C1501      H1506   1.084       .  S
C1503      N1504   1.440       .  S
N1504      H1508   1.046       .  S
N1504      H1509   1.042       .  S
N1507      H1510   1.046       .  S
N1507      H1511   1.046       .  S
C1512      C1517   1.405       .  A
C1512      H1519   1.084       .  S
C1513      C1514   1.418       .  A
C1514      C1515   1.400       .  A
C1514      N1521   1.438       .  S
C1515      H1520   1.084       .  S
C1516      C1517   1.413       .  A
C1517      N1518   1.438       .  S
N1518      H1522   1.046       .  S
N1518      H1523   1.046       .  S
N1521      H1524   1.043       .  S
N1521      H1525   1.046       .  S
C1526      C1531   1.400       .  A
C1526      H1533   1.084       .  S
C1527      C1528   1.419       .  A
C1528      C1529   1.402       .  A
C1528      N1535   1.440       .  S
C1529      H1534   1.084       .  S
C1530      C1531   1.416       .  A
C1531      N1532   1.438       .  S
N1532      H1536   1.045       .  S
N1532      H1537   1.043       .  S
N1535      H1538   1.042       .  S
N1535      H1539   1.046       .  S
C1540      C1883   1.405       .  A
C1540      C1545   1.408   1_556  A
C1540      C1698   1.487       .  S
C1541      C1711   1.405       .  A
C1541      C1542   1.399       .  A
C1541      H1546   1.084       .  S
C1542      C1543   1.399       .  A
C1542      C1618   1.462       .  S
C1543      C1715   1.400       .  A
C1543      H1547   1.084       .  S
C1544      C1885   1.400   1_554  A
C1544      C1545   1.403       .  A
C1544      C1619   1.466       .  S
C1545      H1548   1.084       .  S
C1549      C1892   1.406       .  A
C1549      C1554   1.409   1_556  A
C1549      C1687   1.490       .  S
C1550      C1720   1.406       .  A
C1550      C1551   1.399       .  A
C1550      H1555   1.084       .  S
C1551      C1552   1.399       .  A
C1551      C1641   1.462       .  S
C1552      C1724   1.400       .  A
C1552      H1556   1.084       .  S
C1553      C1894   1.400   1_554  A
C1553      C1554   1.403       .  A
C1553      C1640   1.467       .  S
C1554      H1557   1.083       .  S
C1558      C1901   1.407       .  A
C1558      C1563   1.405   1_556  A
C1558      C1673   1.485       .  S
C1559      C1729   1.407       .  A
C1559      C1560   1.401       .  A
C1559      H1564   1.084       .  S
C1560      C1561   1.399       .  A
C1560      C1630   1.464       .  S
C1561      C1733   1.399       .  A
C1561      H1565   1.084       .  S
C1562      C1903   1.399   1_554  A
C1562      C1563   1.400       .  A
C1562      C1629   1.461       .  S
C1563      H1566   1.084       .  S
N1567      C1572   1.351       .  A
N1567      H1599   1.042       .  S
N1568      C1576   1.349       .  A
N1569      C1574   1.352       .  A
N1569      H1600   1.042       .  S
N1570      C1578   1.350       .  A
C1571      C1579   1.387       .  A
C1571      C1587   1.415       .  A
C1572      C1588   1.415       .  A
C1572      C1580   1.387       .  A
C1573      C1581   1.386       .  A
C1573      C1590   1.412       .  A
C1574      C1589   1.414       .  A
C1574      C1582   1.388       .  A
C1575      C1587   1.411       .  A
C1576      C1590   1.410       .  A
C1576      C1584   1.386       .  A
C1577      C1588   1.413       .  A
C1578      C1586   1.386       .  A
C1578      C1589   1.413       .  A
C1579      H1591   1.082       .  S
C1580      H1592   1.082       .  S
C1581      H1593   1.082       .  S
C1582      H1594   1.082       .  S
C1583      C1584   1.374       .  A
C1584      H1596   1.082       .  S
C1585      C1586   1.376       .  A
C1586      H1598   1.082       .  S
C1587      C1701   1.493       .  S
C1588      C1684   1.492       .  S
C1589      C1659   1.493       .  S
C1590      C1670   1.487       .  S
C1601      C1944   1.406       .  A
C1601      C1606   1.406   1_556  A
C1601      C1656   1.486       .  S
C1602      C1772   1.406       .  A
C1602      C1603   1.400       .  A
C1602      H1607   1.084       .  S
C1603      C1604   1.399       .  A
C1603      C1653   1.463       .  S
C1604      C1776   1.399       .  A
C1604      H1608   1.084       .  S
C1605      C1946   1.399   1_554  A
C1605      C1606   1.401       .  A
C1605      C1654   1.463       .  S
C1606      H1609   1.084       .  S
N1610      N1611   1.320       .  A
N1610      N1616   1.316       .  A
N1610     Mn1639   2.200       .  S
N1611      C1618   1.351       .  A
N1612      N1614   1.316       .  A
N1612      N1613   1.322       .  A
N1612     Mn1628   2.206       .  S
N1613      C1619   1.352       .  A
N1614      N1615   1.320       .  A
N1614     Mn1639   2.202       .  S
N1615      C1619   1.351       .  A
N1616      N1617   1.320       .  A
N1616     Mn1628   2.199       .  S
N1617      C1618   1.351       .  A
N1620      N1626   1.316       .  A
N1620      N1621   1.320       .  A
N1620     Mn1650   2.200       .  S
N1621      C1629   1.351       .  A
N1622      N1623   1.320       .  A
N1622      N1624   1.316       .  A
N1622     Mn1628   2.200       .  S
N1623      C1630   1.351       .  A
N1624      N1625   1.321       .  A
N1624     Mn1650   2.204       .  S
N1625      C1630   1.352       .  A
N1626      N1627   1.320       .  A
N1626     Mn1628   2.196       .  S
N1627      C1629   1.350       .  A
Mn1628    Cl1652   2.548       .  S
N1631      N1632   1.322       .  A
N1631      N1637   1.316       .  A
N1631     Mn1639   2.208       .  S
N1632      C1640   1.353       .  A
N1633      N1635   1.316       .  A
N1633      N1634   1.320       .  A
N1633     Mn1651   2.200       .  S
N1634      C1641   1.351       .  A
N1635      N1636   1.320       .  A
N1635     Mn1639   2.199       .  S
N1636      C1641   1.350       .  A
N1637      N1638   1.321       .  A
N1637     Mn1651   2.204       .  S
N1638      C1640   1.351       .  A
Mn1639    Cl1652   2.548       .  S
N1642      N1643   1.320       .  A
N1642      N1648   1.316       .  A
N1642     Mn1650   2.195       .  S
N1643      C1653   1.350       .  A
N1644      N1645   1.320       .  A
N1644      N1646   1.316       .  A
N1644     Mn1651   2.200       .  S
N1645      C1654   1.350       .  A
N1646      N1647   1.321       .  A
N1646     Mn1650   2.204       .  S
N1647      C1654   1.352       .  A
N1648      N1649   1.321       .  A
N1648     Mn1651   2.206       .  S
N1649      C1653   1.352       .  A
Mn1650    Cl1652   2.548       .  S
Mn1651    Cl1652   2.549       .  S
C1655      C1656   1.405   1_554  A
C1655      C1660   1.401       .  A
C1655      H1662   1.084       .  S
C1656      C1999   1.419       .  A
C1657      C1827   1.419       .  A
C1657      C1658   1.400       .  A
C1657      N1664   1.440       .  S
C1658      C1659   1.404       .  A
C1658      H1663   1.084       .  S
C1659      C1831   1.418       .  A
C1660      C2001   1.418   1_554  A
C1660      N1661   1.438       .  S
N1661      H1665   1.045       .  S
N1661      H1666   1.043       .  S
N1664      H1667   1.042       .  S
N1664      H1668   1.046       .  S
C1669      C1670   1.402       .  A
C1669      C1674   1.402       .  A
C1669      H1676   1.084       .  S
C1670      C1842   1.406       .  A
C1671      C2012   1.406   1_554  A
C1671      C1672   1.401       .  A
C1671      N1678   1.433       .  S
C1672      C1673   1.406   1_554  A
C1672      H1677   1.084       .  S
C1673      C2016   1.421       .  A
C1674      C1844   1.421       .  A
C1674      N1675   1.440       .  S
N1675      H1679   1.046       .  S
N1675      H1680   1.042       .  S
N1678      H1681   1.046       .  S
N1678      H1682   1.046       .  S
C1683      C2026   1.405   1_554  A
C1683      C1688   1.405       .  A
C1683      H1690   1.084       .  S
C1684      C1854   1.405       .  A
C1684      C1685   1.418       .  A
C1685      C1686   1.400       .  A
C1685      N1692   1.438       .  S
C1686      C1858   1.406       .  A
C1686      H1691   1.084       .  S
C1687      C2028   1.406       .  A
C1687      C1688   1.413   1_556  A
C1688      N1689   1.438       .  S
N1689      H1693   1.046       .  S
N1689      H1694   1.046       .  S
N1692      H1695   1.043       .  S
N1692      H1696   1.046       .  S
C1697      C1869   1.406       .  A
C1697      C1702   1.400       .  A
C1697      H1704   1.084       .  S
C1698      C2039   1.406       .  A
C1698      C1699   1.419   1_556  A
C1699      C1700   1.402       .  A
C1699      N1706   1.440       .  S
C1700      C2043   1.405   1_554  A
C1700      H1705   1.084       .  S
C1701      C1871   1.405       .  A
C1701      C1702   1.416       .  A
C1702      N1703   1.438       .  S
N1703      H1707   1.045       .  S
N1703      H1708   1.043       .  S
N1706      H1709   1.042       .  S
N1706      H1710   1.046       .  S
C1711      C1716   1.408       .  A
C1711      C1869   1.487       .  S
C1712      C1882   1.405       .  A
C1712      C1713   1.399       .  A
C1712      H1717   1.084       .  S
C1713      C1714   1.399       .  A
C1713      C1789   1.462       .  S
C1714      C1886   1.400       .  A
C1714      H1718   1.084       .  S
C1715      C1716   1.403       .  A
C1715      C1790   1.466       .  S
C1716      H1719   1.084       .  S
C1720      C1725   1.409       .  A
C1720      C1858   1.490       .  S
C1721      C1891   1.406       .  A
C1721      C1722   1.399       .  A
C1721      H1726   1.084       .  S
C1722      C1723   1.399       .  A
C1722      C1812   1.462       .  S
C1723      C1895   1.400       .  A
C1723      H1727   1.084       .  S
C1724      C1725   1.403       .  A
C1724      C1811   1.467       .  S
C1725      H1728   1.083       .  S
C1729      C1734   1.405       .  A
C1729      C1844   1.485       .  S
C1730      C1900   1.407       .  A
C1730      C1731   1.401       .  A
C1730      H1735   1.084       .  S
C1731      C1732   1.399       .  A
C1731      C1801   1.464       .  S
C1732      C1904   1.399       .  A
C1732      H1736   1.084       .  S
C1733      C1734   1.400       .  A
C1733      C1800   1.461       .  S
C1734      H1737   1.084       .  S
N1738      C1743   1.351       .  A
N1738      H1770   1.042       .  S
N1739      C1747   1.349       .  A
N1740      C1745   1.352       .  A
N1740      H1771   1.042       .  S
N1741      C1749   1.350       .  A
C1742      C1750   1.387       .  A
C1742      C1758   1.415       .  A
C1743      C1759   1.415       .  A
C1743      C1751   1.387       .  A
C1744      C1752   1.386       .  A
C1744      C1761   1.412       .  A
C1745      C1760   1.414       .  A
C1745      C1753   1.388       .  A
C1746      C1758   1.411       .  A
C1747      C1761   1.410       .  A
C1747      C1755   1.386       .  A
C1748      C1759   1.413       .  A
C1749      C1757   1.386       .  A
C1749      C1760   1.413       .  A
C1750      H1762   1.082       .  S
C1751      H1763   1.082       .  S
C1752      H1764   1.082       .  S
C1753      H1765   1.082       .  S
C1754      C1755   1.374       .  A
C1755      H1767   1.082       .  S
C1756      C1757   1.376       .  A
C1757      H1769   1.082       .  S
C1758      C1872   1.493       .  S
C1759      C1855   1.492       .  S
C1760      C1830   1.493       .  S
C1761      C1841   1.487       .  S
C1772      C1777   1.406       .  A
C1772      C1827   1.486       .  S
C1773      C1943   1.406       .  A
C1773      C1774   1.400       .  A
C1773      H1778   1.084       .  S
C1774      C1775   1.399       .  A
C1774      C1824   1.463       .  S
C1775      C1947   1.399       .  A
C1775      H1779   1.084       .  S
C1776      C1777   1.401       .  A
C1776      C1825   1.463       .  S
C1777      H1780   1.084       .  S
N1781      N1782   1.320       .  A
N1781      N1787   1.316       .  A
N1781     Mn1810   2.200       .  S
N1782      C1789   1.351       .  A
N1783      N1785   1.316       .  A
N1783      N1784   1.322       .  A
N1783     Mn1799   2.206       .  S
N1784      C1790   1.352       .  A
N1785      N1786   1.320       .  A
N1785     Mn1810   2.202       .  S
N1786      C1790   1.351       .  A
N1787      N1788   1.320       .  A
N1787     Mn1799   2.199       .  S
N1788      C1789   1.351       .  A
N1791      N1797   1.316       .  A
N1791      N1792   1.320       .  A
N1791     Mn1821   2.200       .  S
N1792      C1800   1.351       .  A
N1793      N1794   1.320       .  A
N1793      N1795   1.316       .  A
N1793     Mn1799   2.200       .  S
N1794      C1801   1.351       .  A
N1795      N1796   1.321       .  A
N1795     Mn1821   2.204       .  S
N1796      C1801   1.352       .  A
N1797      N1798   1.320       .  A
N1797     Mn1799   2.196       .  S
N1798      C1800   1.350       .  A
Mn1799    Cl1823   2.548       .  S
N1802      N1803   1.322       .  A
N1802      N1808   1.316       .  A
N1802     Mn1810   2.208       .  S
N1803      C1811   1.353       .  A
N1804      N1806   1.316       .  A
N1804      N1805   1.320       .  A
N1804     Mn1822   2.200       .  S
N1805      C1812   1.351       .  A
N1806      N1807   1.320       .  A
N1806     Mn1810   2.199       .  S
N1807      C1812   1.350       .  A
N1808      N1809   1.321       .  A
N1808     Mn1822   2.204       .  S
N1809      C1811   1.351       .  A
Mn1810    Cl1823   2.548       .  S
N1813      N1814   1.320       .  A
N1813      N1819   1.316       .  A
N1813     Mn1821   2.195       .  S
N1814      C1824   1.350       .  A
N1815      N1816   1.320       .  A
N1815      N1817   1.316       .  A
N1815     Mn1822   2.200       .  S
N1816      C1825   1.350       .  A
N1817      N1818   1.321       .  A
N1817     Mn1821   2.204       .  S
N1818      C1825   1.352       .  A
N1819      N1820   1.321       .  A
N1819     Mn1822   2.206       .  S
N1820      C1824   1.352       .  A
Mn1821    Cl1823   2.548       .  S
Mn1822    Cl1823   2.549       .  S
C1826      C1827   1.405       .  A
C1826      C1831   1.401       .  A
C1826      H1833   1.084       .  S
C1828      C1998   1.419       .  A
C1828      C1829   1.400       .  A
C1828      N1835   1.440       .  S
C1829      C1830   1.404       .  A
C1829      H1834   1.084       .  S
C1830      C2002   1.418       .  A
C1831      N1832   1.438       .  S
N1832      H1836   1.045       .  S
N1832      H1837   1.043       .  S
N1835      H1838   1.042       .  S
N1835      H1839   1.046       .  S
C1840      C1841   1.402       .  A
C1840      C1845   1.402       .  A
C1840      H1847   1.084       .  S
C1841      C2013   1.406       .  A
C1842      C1843   1.401       .  A
C1842      N1849   1.433       .  S
C1843      C1844   1.406       .  A
C1843      H1848   1.084       .  S
C1845      C2015   1.421       .  A
C1845      N1846   1.440       .  S
N1846      H1850   1.046       .  S
N1846      H1851   1.042       .  S
N1849      H1852   1.046       .  S
N1849      H1853   1.046       .  S
C1854      C1859   1.405       .  A
C1854      H1861   1.084       .  S
C1855      C2025   1.405       .  A
C1855      C1856   1.418       .  A
C1856      C1857   1.400       .  A
C1856      N1863   1.438       .  S
C1857      C2029   1.406       .  A
C1857      H1862   1.084       .  S
C1858      C1859   1.413       .  A
C1859      N1860   1.438       .  S
N1860      H1864   1.046       .  S
N1860      H1865   1.046       .  S
N1863      H1866   1.043       .  S
N1863      H1867   1.046       .  S
C1868      C2040   1.406       .  A
C1868      C1873   1.400       .  A
C1868      H1875   1.084       .  S
C1869      C1870   1.419       .  A
C1870      C1871   1.402       .  A
C1870      N1877   1.440       .  S
C1871      H1876   1.084       .  S
C1872      C2042   1.405       .  A
C1872      C1873   1.416       .  A
C1873      N1874   1.438       .  S
N1874      H1878   1.045       .  S
N1874      H1879   1.043       .  S
N1877      H1880   1.042       .  S
N1877      H1881   1.046       .  S
C1882      C1887   1.408       .  A
C1882      C2040   1.487       .  S
C1883      C1884   1.399       .  A
C1883      H1888   1.084       .  S
C1884      C1885   1.399       .  A
C1884      C1960   1.462       .  S
C1885      H1889   1.084       .  S
C1886      C1887   1.403       .  A
C1886      C1961   1.466       .  S
C1887      H1890   1.084       .  S
C1891      C1896   1.409       .  A
C1891      C2029   1.490       .  S
C1892      C1893   1.399       .  A
C1892      H1897   1.084       .  S
C1893      C1894   1.399       .  A
C1893      C1983   1.462       .  S
C1894      H1898   1.084       .  S
C1895      C1896   1.403       .  A
C1895      C1982   1.467       .  S
C1896      H1899   1.083       .  S
C1900      C1905   1.405       .  A
C1900      C2015   1.485       .  S
C1901      C1902   1.401       .  A
C1901      H1906   1.084       .  S
C1902      C1903   1.399       .  A
C1902      C1972   1.464       .  S
C1903      H1907   1.084       .  S
C1904      C1905   1.400       .  A
C1904      C1971   1.461       .  S
C1905      H1908   1.084       .  S
N1909      C1914   1.351       .  A
N1909      H1941   1.042       .  S
N1910      C1918   1.349       .  A
N1911      C1916   1.352   1_556  A
N1911      H1942   1.042       .  S
N1912      C1920   1.350       .  A
C1913      C1921   1.387   1_556  A
C1913      C1929   1.415       .  A
C1914      C1930   1.415       .  A
C1914      C1922   1.387   1_556  A
C1915      C1923   1.386       .  A
C1915      C1932   1.412   1_554  A
C1916      C1931   1.414   1_554  A
C1916      C1924   1.388       .  A
C1917      C1929   1.411       .  A
C1918      C1932   1.410       .  A
C1918      C1926   1.386       .  A
C1919      C1930   1.413       .  A
C1920      C1928   1.386       .  A
C1920      C1931   1.413       .  A
C1921      H1933   1.082       .  S
C1922      H1934   1.082       .  S
C1923      H1935   1.082       .  S
C1924      H1936   1.082       .  S
C1925      C1926   1.374       .  A
C1926      H1938   1.082       .  S
C1927      C1928   1.376       .  A
C1928      H1940   1.082       .  S
C1929      C2043   1.493       .  S
C1930      C2026   1.492       .  S
C1931      C2001   1.493       .  S
C1932      C2012   1.487       .  S
C1943      C1948   1.406       .  A
C1943      C1998   1.486       .  S
C1944      C1945   1.400       .  A
C1944      H1949   1.084       .  S
C1945      C1946   1.399       .  A
C1945      C1995   1.463       .  S
C1946      H1950   1.084       .  S
C1947      C1948   1.401       .  A
C1947      C1996   1.463       .  S
C1948      H1951   1.084       .  S
N1952      N1953   1.320       .  A
N1952      N1958   1.316       .  A
N1952     Mn1981   2.200       .  S
N1953      C1960   1.351       .  A
N1954      N1956   1.316       .  A
N1954      N1955   1.322       .  A
N1954     Mn1970   2.206       .  S
N1955      C1961   1.352       .  A
N1956      N1957   1.320       .  A
N1956     Mn1981   2.202       .  S
N1957      C1961   1.351       .  A
N1958      N1959   1.320       .  A
N1958     Mn1970   2.199       .  S
N1959      C1960   1.351       .  A
N1962      N1968   1.316       .  A
N1962      N1963   1.320       .  A
N1962     Mn1992   2.200       .  S
N1963      C1971   1.351       .  A
N1964      N1965   1.320       .  A
N1964      N1966   1.316       .  A
N1964     Mn1970   2.200       .  S
N1965      C1972   1.351       .  A
N1966      N1967   1.321       .  A
N1966     Mn1992   2.204       .  S
N1967      C1972   1.352       .  A
N1968      N1969   1.320       .  A
N1968     Mn1970   2.196       .  S
N1969      C1971   1.350       .  A
Mn1970    Cl1994   2.548       .  S
N1973      N1974   1.322       .  A
N1973      N1979   1.316       .  A
N1973     Mn1981   2.208       .  S
N1974      C1982   1.353       .  A
N1975      N1977   1.316       .  A
N1975      N1976   1.320       .  A
N1975     Mn1993   2.200       .  S
N1976      C1983   1.351       .  A
N1977      N1978   1.320       .  A
N1977     Mn1981   2.199       .  S
N1978      C1983   1.350       .  A
N1979      N1980   1.321       .  A
N1979     Mn1993   2.204       .  S
N1980      C1982   1.351       .  A
Mn1981    Cl1994   2.548       .  S
N1984      N1985   1.320       .  A
N1984      N1990   1.316       .  A
N1984     Mn1992   2.195       .  S
N1985      C1995   1.350       .  A
N1986      N1987   1.320       .  A
N1986      N1988   1.316       .  A
N1986     Mn1993   2.200       .  S
N1987      C1996   1.350       .  A
N1988      N1989   1.321       .  A
N1988     Mn1992   2.204       .  S
N1989      C1996   1.352       .  A
N1990      N1991   1.321       .  A
N1990     Mn1993   2.206       .  S
N1991      C1995   1.352       .  A
Mn1992    Cl1994   2.548       .  S
Mn1993    Cl1994   2.549       .  S
C1997      C1998   1.405       .  A
C1997      C2002   1.401       .  A
C1997      H2004   1.084       .  S
C1999      C2000   1.400       .  A
C1999      N2006   1.440       .  S
C2000      C2001   1.404       .  A
C2000      H2005   1.084       .  S
C2002      N2003   1.438       .  S
N2003      H2007   1.045       .  S
N2003      H2008   1.043       .  S
N2006      H2009   1.042       .  S
N2006      H2010   1.046       .  S
C2011      C2012   1.402       .  A
C2011      C2016   1.402       .  A
C2011      H2018   1.084       .  S
C2013      C2014   1.401       .  A
C2013      N2020   1.433       .  S
C2014      C2015   1.406       .  A
C2014      H2019   1.084       .  S
C2016      N2017   1.440       .  S
N2017      H2021   1.046       .  S
N2017      H2022   1.042       .  S
N2020      H2023   1.046       .  S
N2020      H2024   1.046       .  S
C2025      C2030   1.405       .  A
C2025      H2032   1.084       .  S
C2026      C2027   1.418       .  A
C2027      C2028   1.400       .  A
C2027      N2034   1.438       .  S
C2028      H2033   1.084       .  S
C2029      C2030   1.413       .  A
C2030      N2031   1.438       .  S
N2031      H2035   1.046       .  S
N2031      H2036   1.046       .  S
N2034      H2037   1.043       .  S
N2034      H2038   1.046       .  S
C2039      C2044   1.400       .  A
C2039      H2046   1.084       .  S
C2040      C2041   1.419       .  A
C2041      C2042   1.402       .  A
C2041      N2048   1.440       .  S
C2042      H2047   1.084       .  S
C2043      C2044   1.416       .  A
C2044      N2045   1.438       .  S
N2045      H2049   1.045       .  S
N2045      H2050   1.043       .  S
N2048      H2051   1.042       .  S
N2048      H2052   1.046       .  S
