geometry optimzed in LAMMPS
_audit_creation_date              2020-11-30 
_audit_creation_method            'lammps2cif' 
_symmetry_space_group_name_H-M    'P1' 
_symmetry_Int_Tables_number       1 
_symmetry_cell_setting            triclinic 
loop_ 
_symmetry_equiv_pos_as_xyz 
  x,y,z 
_cell_length_a                    45.03725771 
_cell_length_b                    44.86920892198472 
_cell_length_c                    33.599601952797286 
_cell_angle_alpha                 89.448682535233 
_cell_angle_beta                  89.65036382566612 
_cell_angle_gamma                 89.67894425699684 
loop_ 
_atom_site_label 
_atom_site_type_symbol 
_atom_site_fract_x 
_atom_site_fract_y 
_atom_site_fract_z 
_atom_site_charge 
C1          C  0.36118639  0.37752803  0.99630600     0.80300
N2          N  0.35107133  0.36530650  0.29619263    -0.78000
C3          C  0.32664096  0.34766263  0.29625802     0.82700
N4          N  0.31465809  0.33831350  0.33136287    -0.78000
C5          C  0.32539541  0.35005466  0.03289239     0.82800
N6          N  0.34959153  0.36807240  0.03176453    -0.79700
C7          C  0.15132155  0.36846414  0.99834465     0.80300
N8          N  0.16533967  0.35356815  0.29791349    -0.78000
C9          C  0.18216805  0.32862709  0.29979365     0.82700
N10         N  0.18944774  0.31659274  0.33557776    -0.78000
C11         C  0.17920851  0.33238770  0.03411977     0.82800
N12         N  0.16097220  0.35663193  0.03348209    -0.79700
C13         C  0.37122451  0.16837713  0.99765580     0.80300
N14         N  0.36442767  0.18383416  0.29543359    -0.78000
C15         C  0.34329152  0.20534479  0.29784448     0.82700
N16         N  0.33209808  0.21468811  0.00184227    -0.78000
C17         C  0.34258312  0.20192500  0.03569170     0.82800
N18         N  0.36200592  0.17873198  0.03364868    -0.79700
N19         N  0.01489106  0.47061212  0.31899752    -0.36600
N20         N  0.05525399  0.01530816  0.32795742    -0.57100
N21         N  0.01034655  0.06215710  0.33138507    -0.36500
N22         N  0.46811272  0.02095004  0.32610700    -0.57100
C23         C  0.03933375  0.45304447  0.32170196     0.27000
C24         C  0.48632224  0.45383206  0.32768289     0.27000
C25         C  0.03499370  0.07865713  0.32467038     0.27000
C26         C  0.49119429  0.08284525  0.33253268     0.27000
C27         C  0.07898188  0.49182560  0.31319198     0.35700
C28         C  0.07306026  0.03880840  0.33495725     0.35700
C29         C  0.44673272  0.49311890  0.32859206     0.35700
C30         C  0.45117030  0.04563213  0.32142444     0.35700
C31         C  0.03078423  0.42412349  0.33112335    -0.21800
C32         C  0.49544439  0.42466685  0.33444816    -0.21800
C33         C  0.02673571  0.10726251  0.31316584    -0.21800
C34         C  0.50052220  0.11021906  0.34653964    -0.21800
C35         C  0.10051779  0.99841659  0.34464351    -0.22900
C36         C  0.10125776  0.02897124  0.34512455    -0.22900
C37         C  0.42114466  0.00714842  0.31479902    -0.22900
C38         C  0.42194878  0.03775082  0.31447463    -0.22900
C39         C  0.06925817  0.46203320  0.31638546    -0.18200
C40         C  0.45629987  0.46314012  0.32648240    -0.18200
C41         C  0.46125326  0.07509827  0.32634200    -0.18200
C42         C  0.06468568  0.06904816  0.33033479    -0.18200
H43         H  0.04497568  0.40483717  0.33550974     0.14700
H44         H  0.48162123  0.40533394  0.33956401     0.14700
H45         H  0.04122023  0.12574759  0.30601198     0.14700
H46         H  0.48687084  0.12901373  0.35520350     0.14700
H47         H  0.12795795  0.48608752  0.30919780     0.13000
H48         H  0.12041585  0.04240725  0.35195106     0.13000
H49         H  0.39786020  0.48873352  0.32335351     0.13000
H50         H  0.40308600  0.05249478  0.31038540     0.13000
H51         H  0.01442991  0.49287260  0.31076048     0.26200
H52         H  0.00966726  0.04060600  0.34261729     0.26200
C53         C  0.16037402  0.15487567  0.00196471     0.80300
N54         N  0.17212831  0.16614570  0.30028820    -0.78000
C55         C  0.19643569  0.18394897  0.29983817     0.82700
N56         N  0.20718026  0.19326110  0.00136431    -0.78000
C57         C  0.19575810  0.18338060  0.03656202     0.82800
N58         N  0.17237104  0.16429111  0.03678098    -0.79700
C59         C  0.32962831  0.21668682  0.26172056     0.42500
N60         N  0.30232335  0.22012332  0.21028402     0.01400
C61         C  0.28561058  0.34506604  0.09007752    -0.06500
H62         H  0.26937105  0.35996918  0.24933938     0.06900
C63         C  0.18628117  0.28947955  0.24321071    -0.06300
Co64       Co  0.31441387  0.27654152  0.16488354     0.74200
N65         N  0.28443476  0.32570889  0.20884626    -0.26000
Co66       Co  0.25152167  0.32075367  0.16551925     0.74100
C67         C  0.19449219  0.31668473  0.26327688     0.42600
N68         N  0.21308804  0.22423447  0.21043821     0.01000
N69         N  0.21970090  0.31363662  0.20960464     0.01100
N70         N  0.32674379  0.31584599  0.09152841    -0.46800
H71         H  0.35314264  0.26081889  0.24793923     0.06900
N72         N  0.30874127  0.30920015  0.20776945     0.01400
N73         N  0.21881203  0.31470331  0.12263271     0.01200
C74         C  0.19049265  0.32065898  0.07211168     0.42800
N75         N  0.23752928  0.20790014  0.21111758    -0.25500
C76         C  0.33818476  0.24142292  0.09166470    -0.06400
N77         N  0.30818969  0.20274604  0.24136083    -0.46600
N78         N  0.21245365  0.33334011  0.09299416    -0.46800
C79         C  0.33208906  0.21260296  0.07409944     0.42500
N80         N  0.30822521  0.30914729  0.12104465     0.01400
N81         N  0.23742277  0.20756163  0.12340429    -0.25500
N82         N  0.31893491  0.24430231  0.20920138    -0.26000
N83         N  0.21325296  0.22439537  0.12336259     0.01000
H84         H  0.25233984  0.17191610  0.08509020     0.06900
H85         H  0.16779296  0.27545562  0.08299901     0.07000
N86         N  0.28408458  0.32600168  0.12111359    -0.26000
N87         N  0.20314357  0.28941570  0.21016785    -0.25600
N88         N  0.30278436  0.21898001  0.12355485     0.01400
C89         C  0.31464284  0.33692257  0.25857599     0.42800
C90         C  0.23641619  0.18949836  0.24290345    -0.06900
N91         N  0.20235291  0.29039639  0.12245571    -0.25600
H92         H  0.17069927  0.27244528  0.25227975     0.06900
N93         N  0.32737420  0.31517166  0.23694296    -0.46900
H94         H  0.25326361  0.17343265  0.25138392     0.06900
C95         C  0.20731978  0.19506750  0.07409363     0.42600
C96         C  0.33702572  0.24398848  0.24067071    -0.06400
Co97       Co  0.27018358  0.21291964  0.16707248     0.73800
N98         N  0.19472367  0.21776997  0.24030296    -0.46600
C99         C  0.31408805  0.33850602  0.07101973     0.42900
N100        N  0.30963275  0.20009025  0.09485233    -0.46600
Co101      Co  0.20716206  0.25708805  0.16643853     0.73900
C102        C  0.18392108  0.29204435  0.09115579    -0.06900
C103        C  0.28600608  0.34385821  0.24041870    -0.06500
N104        N  0.31919493  0.24329425  0.12241746    -0.26000
N105        N  0.21493967  0.33079301  0.24079152    -0.46700
H106        H  0.26911823  0.36168355  0.08224669     0.06900
C107        C  0.23583418  0.18849852  0.09284746    -0.06900
Cl108      Cl  0.26079316  0.26681303  0.16564605    -0.49900
C109        C  0.20794154  0.19596820  0.26190477     0.42700
H110        H  0.35449788  0.25792586  0.08315153     0.06900
N111        N  0.19471658  0.21772102  0.09431677    -0.46600
C112        C  0.09266884  0.10881657  0.36523031    -0.12200
C113        C  0.08820287  0.09147788  0.99812739     0.04800
C114        C  0.09179252  0.11297930  0.96779985    -0.07500
C115        C  0.11514773  0.13354557  0.96972138    -0.08200
C116        C  0.13514657  0.13328638  0.00189263    -0.02800
C117        C  0.11553862  0.12987432  0.36736067     0.04000
N118        N  0.11761004  0.14729653  0.40254637     0.66500
H119        H  0.07801615  0.10557931  0.39059817     0.15400
H120        H  0.11763702  0.14977786  0.94587391     0.15100
N121        N  0.07206714  0.11375865  0.93463352     0.74200
O122        O  0.10009314  0.16909075  0.40687117    -0.39200
O123        O  0.17062408  0.09011795  0.06595918    -0.39200
O124        O  0.08161317  0.08708386  0.23947715    -0.39900
O125        O  0.07421386  0.09408845  0.90816338    -0.39900
C126        C  0.43260244  0.11454643  0.29118424    -0.12200
C127        C  0.43641792  0.09812551  0.99357724     0.04800
C128        C  0.41853603  0.10208052  0.02763098    -0.07500
C129        C  0.39723908  0.12485561  0.02820228    -0.08200
C130        C  0.39339181  0.14392752  0.99519094    -0.02800
C131        C  0.41318189  0.13901745  0.29086670     0.04000
N132        N  0.40914771  0.15494421  0.25421292     0.66500
H133        H  0.44328147  0.10771104  0.26371878     0.15400
H134        H  0.38372159  0.12761148  0.05471503     0.15100
N135        N  0.42220081  0.08360938  0.06213185     0.74200
O136        O  0.42690730  0.17563385  0.24521397    -0.39200
O137        O  0.39370726  0.14350490  0.22718198    -0.39200
O138        O  0.43775484  0.09285792  0.09052359    -0.39900
O139        O  0.40457941  0.06224793  0.06814506    -0.39900
C140        C  0.11997358  0.39744336  0.29125420    -0.12200
C141        C  0.12990211  0.39411362  0.99731085     0.04800
C142        C  0.11705081  0.40625476  0.03235009    -0.07500
C143        C  0.09613011  0.42926596  0.02960497    -0.08200
C144        C  0.09238264  0.43863992  0.31925464    -0.02800
C145        C  0.09932191  0.42054106  0.28669992     0.04000
N146        N  0.08615509  0.42604206  0.24869840     0.66500
H147        H  0.12430598  0.38317705  0.26602555     0.15400
H148        H  0.08627279  0.43810669  0.05657523     0.15100
N149        N  0.12411984  0.39518783  0.07113006     0.74200
O150        O  0.10562511  0.46229843  0.90449713    -0.39200
O151        O  0.06081885  0.41572787  0.24118409    -0.39200
O152        O  0.14087089  0.41031904  0.09299939    -0.39900
O153        O  0.13504468  0.40088090  0.42637316    -0.39900
C154        C  0.42202690  0.43010129  0.36385985    -0.12200
C155        C  0.43331980  0.43968497  0.32721559     0.04800
C156        C  0.42342095  0.42551932  0.95349591    -0.07500
C157        C  0.40049321  0.40463888  0.95721301    -0.08200
C158        C  0.38684596  0.39860147  0.99441131    -0.02800
C159        C  0.40007186  0.40827024  0.36608538     0.04000
N160        N  0.38499410  0.40925985  0.06703313     0.66500
H161        H  0.43022135  0.43987724  0.39102896     0.15400
H162        H  0.39326207  0.39331594  0.93068176     0.15100
N163        N  0.43418027  0.43672310  0.25422663     0.74200
O164        O  0.40429033  0.38213133  0.42569040    -0.39200
O165        O  0.36686650  0.42819175  0.08063509    -0.39200
O166        O  0.45892339  0.42708043  0.24192281    -0.39900
O167        O  0.42524252  0.45186881  0.89358123    -0.39900
C168        C  0.36352865  0.37402692  0.33102124     0.80300
N169        N  0.34885843  0.36959184  0.62975724    -0.78000
C170        C  0.32586161  0.35011802  0.63058480     0.82700
N171        N  0.31459245  0.34083199  0.66611563    -0.78000
C172        C  0.32731047  0.34629867  0.36621892     0.82800
N173        N  0.35170548  0.36390236  0.36590138    -0.79700
C174        C  0.15518677  0.36673210  0.33149263     0.80300
N175        N  0.16124634  0.35372149  0.62953135    -0.78000
C176        C  0.17944181  0.32943022  0.62946928     0.82700
N177        N  0.18877191  0.31738362  0.66441024    -0.78000
C178        C  0.17992392  0.32979731  0.36953050     0.82800
N179        N  0.16291845  0.35496150  0.36753232    -0.79700
C180        C  0.37725721  0.17281005  0.32891313     0.80300
N181        N  0.36521962  0.18141760  0.63285475    -0.78000
C182        C  0.34426202  0.20315016  0.63344715     0.82700
N183        N  0.33459640  0.21588588  0.33381575    -0.78000
C184        C  0.34704743  0.20475192  0.36747908     0.82800
N185        N  0.36818020  0.18323435  0.36494719    -0.79700
N186        N  0.01266042  0.47193529  0.65463069    -0.36600
N187        N  0.05673360  0.01832842  0.64977518    -0.57100
N188        N  0.01159191  0.06501930  0.65988323    -0.36500
N189        N  0.46753627  0.02055877  0.66257780    -0.57100
C190        C  0.03612770  0.45431081  0.66385016     0.27000
C191        C  0.48862355  0.45556552  0.65213381     0.27000
C192        C  0.03574832  0.08213831  0.65299542     0.27000
C193        C  0.49435465  0.08154306  0.67068505     0.27000
C194        C  0.07590752  0.49270143  0.66213120     0.35700
C195        C  0.07491052  0.04213960  0.65052143     0.35700
C196        C  0.44914042  0.49517260  0.65275160     0.35700
C197        C  0.45191651  0.04630338  0.66132911     0.35700
C198        C  0.02624213  0.42583928  0.67312989    -0.21800
C199        C  0.49797014  0.42633364  0.64737144    -0.21800
C200        C  0.02689033  0.11155243  0.64770256    -0.21800
C201        C  0.50567377  0.10897734  0.68151834    -0.21800
C202        C  0.10391723  0.00229420  0.64746896    -0.22900
C203        C  0.10428661  0.03278969  0.64897391    -0.22900
C204        C  0.41975627  0.01014126  0.65038960    -0.22900
C205        C  0.42218911  0.04044006  0.65420771    -0.22900
C206        C  0.06628766  0.46286142  0.66243239    -0.18200
C207        C  0.45840918  0.46493877  0.65197544    -0.18200
C208        C  0.46371178  0.07499624  0.66790818    -0.18200
C209        C  0.06566874  0.07229377  0.65233971    -0.18200
H210        H  0.03954148  0.40659248  0.68127807     0.14700
H211        H  0.48429078  0.40697070  0.64254952     0.14700
H212        H  0.04087448  0.13070273  0.64216156     0.14700
H213        H  0.49331107  0.12861528  0.69030718     0.14700
H214        H  0.12437852  0.48771469  0.65166926     0.13000
H215        H  0.12399393  0.04648676  0.64890791     0.13000
H216        H  0.40006794  0.49100448  0.65091011     0.13000
H217        H  0.40405731  0.05630345  0.65217955     0.13000
H218        H  0.01362405  0.49375624  0.64427907     0.26200
H219        H  0.01173807  0.04265965  0.66705964     0.26200
C220        C  0.16059498  0.15563104  0.33526467     0.80300
N221        N  0.17655077  0.16515484  0.63164319    -0.78000
C222        C  0.20086654  0.18274948  0.63284200     0.82700
N223        N  0.20946847  0.19142047  0.33468211    -0.78000
C224        C  0.19803288  0.18157939  0.36992576     0.82800
N225        N  0.17346173  0.16389932  0.37014332    -0.79700
C226        C  0.33231372  0.21450932  0.59613457     0.42500
N227        N  0.30612635  0.21834880  0.54361011     0.01400
C228        C  0.28698104  0.34151423  0.42266454    -0.06500
H229        H  0.26930793  0.35972077  0.58142654     0.06900
C230        C  0.18563298  0.28898584  0.57412716    -0.06300
Co231      Co  0.31725752  0.27569828  0.50038304     0.74200
N232        N  0.28554983  0.32463982  0.54310537    -0.26000
Co233      Co  0.25321589  0.31888226  0.49918684     0.74100
C234        C  0.19122565  0.31788662  0.59200523     0.42600
N235        N  0.21730290  0.22233411  0.54365595     0.01000
N236        N  0.22067435  0.31217213  0.54249053     0.01100
N237        N  0.32913418  0.31391471  0.42644967    -0.46800
H238        H  0.35442762  0.25988397  0.58532501     0.06900
N239        N  0.31006982  0.30838115  0.54344072     0.01400
N240        N  0.22079222  0.31219720  0.45625540     0.01200
C241        C  0.19071857  0.31862491  0.40781768     0.42800
N242        N  0.24170399  0.20588541  0.54387804    -0.25500
C243        C  0.34238801  0.24227527  0.42620142    -0.06400
N244        N  0.31179527  0.20049303  0.57426949    -0.46600
N245        N  0.21323279  0.33122388  0.42766873    -0.46800
C246        C  0.33616129  0.21430627  0.40641527     0.42500
N247        N  0.31084219  0.30795524  0.45645147     0.01400
N248        N  0.24138914  0.20579938  0.45596056    -0.25500
N249        N  0.32189875  0.24307881  0.54424215    -0.26000
N250        N  0.21686211  0.22209228  0.45683520     0.01000
H251        H  0.25613297  0.17050000  0.41683757     0.06900
H252        H  0.16907522  0.27284560  0.41844439     0.07000
N253        N  0.28611266  0.32389948  0.45521374    -0.26000
N254        N  0.20467735  0.28758181  0.54326728    -0.25600
N255        N  0.30698497  0.21864680  0.45657372     0.01400
C256        C  0.31461630  0.33750928  0.59333218     0.42800
C257        C  0.24102060  0.18782655  0.57604405    -0.06900
N258        N  0.20468664  0.28768310  0.45619322    -0.25600
H259        H  0.16951322  0.27222743  0.58239796     0.06900
N260        N  0.32808085  0.31537757  0.57299291    -0.46900
H261        H  0.25799896  0.17192258  0.58459537     0.06900
C262        C  0.21035175  0.19275211  0.40752373     0.42600
C263        C  0.33918086  0.24264328  0.57658529    -0.06400
Co264      Co  0.27425962  0.21137884  0.49979531     0.73800
N265        N  0.19942798  0.21637313  0.57406710    -0.46600
C266        C  0.31557154  0.33490445  0.40405183     0.42900
N267        N  0.31380754  0.20094204  0.42649599    -0.46600
Co268      Co  0.21030827  0.25474676  0.49996334     0.73900
C269        C  0.18535911  0.28945958  0.42597225    -0.06900
C270        C  0.28629361  0.34357253  0.57388996    -0.06500
N271        N  0.32334670  0.24299656  0.45707499    -0.26000
N272        N  0.21338961  0.33087050  0.57122697    -0.46700
H273        H  0.26984617  0.35698681  0.41331719     0.06900
C274        C  0.23953863  0.18683707  0.42517679    -0.06900
Cl275      Cl  0.26374538  0.26516252  0.49971458    -0.49900
C276        C  0.21298521  0.19495892  0.59573904     0.42700
H277        H  0.35841934  0.25925869  0.41849132     0.06900
N278        N  0.19787945  0.21507664  0.42846268    -0.46600
C279        C  0.10012492  0.10196410  0.69280411    -0.12200
C280        C  0.08849173  0.09195777  0.33093846     0.04800
C281        C  0.10727741  0.09652178  0.29792384    -0.07500
C282        C  0.13032182  0.11738695  0.29991866    -0.08200
C283        C  0.13508993  0.13425807  0.33456442    -0.02800
C284        C  0.12379707  0.12167046  0.69717656     0.04000
N285        N  0.13496605  0.12617721  0.73631151     0.66500
H286        H  0.09071579  0.09119928  0.71897190     0.15400
H287        H  0.14469284  0.12017783  0.27419980     0.15100
N288        N  0.10289759  0.08021523  0.26209621     0.74200
O289        O  0.12128592  0.14363915  0.75932676    -0.39200
O290        O  0.12996087  0.13610654  0.43284802    -0.39200
O291        O  0.06864211  0.11476959  0.56857220    -0.39900
O292        O  0.11672595  0.05602988  0.25679186    -0.39900
C293        C  0.43398718  0.11298159  0.63232819    -0.12200
C294        C  0.43911317  0.09948561  0.32673191     0.04800
C295        C  0.42620923  0.10903078  0.36255171    -0.07500
C296        C  0.40637731  0.13293263  0.36232539    -0.08200
C297        C  0.39937059  0.14821414  0.32686308    -0.02800
C298        C  0.41269239  0.13569826  0.63079528     0.04000
N299        N  0.40449953  0.14698619  0.59247255     0.66500
H300        H  0.44354940  0.10471479  0.60484017     0.15400
H301        H  0.39653678  0.13951362  0.39041370     0.15100
N302        N  0.43394158  0.09541686  0.39967614     0.74200
O303        O  0.42031976  0.16683393  0.57620984    -0.39200
O304        O  0.38749048  0.13173184  0.57110163    -0.39200
O305        O  0.45349585  0.10740092  0.42087627    -0.39900
O306        O  0.41649385  0.07674971  0.41536844    -0.39900
C307        C  0.12134582  0.40418829  0.62815787    -0.12200
C308        C  0.13470675  0.39263871  0.32777350     0.04800
C309        C  0.12905284  0.41244607  0.35942998    -0.07500
C310        C  0.10750281  0.43473894  0.35516862    -0.08200
C311        C  0.08913591  0.43904654  0.66270382    -0.02800
C312        C  0.10052270  0.42750361  0.62704549     0.04000
N313        N  0.09064379  0.43909088  0.58959422     0.66500
H314        H  0.12967381  0.39556541  0.60021539     0.15400
H315        H  0.10288227  0.44952268  0.37979901     0.15100
N316        N  0.14624999  0.41173525  0.39497362     0.74200
O317        O  0.09752381  0.44514695  0.22548226    -0.39200
O318        O  0.06615146  0.43058781  0.57577849    -0.39200
O319        O  0.16820374  0.42895229  0.39757671    -0.39900
O320        O  0.11037351  0.37256309  0.75450690    -0.39900
C321        C  0.42099376  0.43668084  0.69155099    -0.12200
C322        C  0.43470679  0.44178207  0.65460322     0.04800
C323        C  0.42298973  0.42691246  0.29200623    -0.07500
C324        C  0.40091861  0.40503233  0.29386251    -0.08200
C325        C  0.38876183  0.39556351  0.33069836    -0.02800
C326        C  0.39671021  0.41739568  0.69556354     0.04000
N327        N  0.38925927  0.40005038  0.40466917     0.66500
H328        H  0.42852703  0.44876760  0.71735378     0.15400
H329        H  0.39300840  0.39582905  0.26622364     0.15100
N330        N  0.43613374  0.43242155  0.58230424     0.74200
O331        O  0.39420172  0.40142601  0.76135606    -0.39200
O332        O  0.37005568  0.41639332  0.42128523    -0.39200
O333        O  0.42321102  0.45088381  0.55964705    -0.39900
O334        O  0.42252411  0.45911058  0.23737177    -0.39900
C335        C  0.36062791  0.38023427  0.66410397     0.80300
N336        N  0.34869516  0.36784203  0.96199903    -0.78000
C337        C  0.32451313  0.34992056  0.96291723     0.82700
N338        N  0.31282243  0.34112258  0.99841255    -0.78000
C339        C  0.32634828  0.35074408  0.70066940     0.82800
N340        N  0.34940493  0.37030255  0.69961397    -0.79700
C341        C  0.15196162  0.36589376  0.66450745     0.80300
N342        N  0.16101580  0.35612306  0.96372643    -0.78000
C343        C  0.17923509  0.33191181  0.96410607     0.82700
N344        N  0.18821095  0.31996809  0.99934937    -0.78000
C345        C  0.18014668  0.32973598  0.69929142     0.82800
N346        N  0.16203401  0.35394243  0.69921408    -0.79700
C347        C  0.37638952  0.17014903  0.66727541     0.80300
N348        N  0.36004954  0.18085519  0.96400450    -0.78000
C349        C  0.34076864  0.20400431  0.96603510     0.82700
N350        N  0.33405415  0.21378197  0.66865196    -0.78000
C351        C  0.34463897  0.20237532  0.70332677     0.82800
N352        N  0.36572103  0.18061548  0.70258162    -0.79700
N353        N  0.00984371  0.47194048  0.98627452    -0.36600
N354        N  0.05409357  0.01559912  0.99649113    -0.57100
N355        N  0.00987481  0.06223151  0.99850261    -0.36500
N356        N  0.46555116  0.02029363  0.98771608    -0.57100
C357        C  0.03392171  0.45474207  0.99393314     0.27000
C358        C  0.48645062  0.45381506  0.98777180     0.27000
C359        C  0.03472137  0.07796319  0.00616546     0.27000
C360        C  0.48916127  0.08177120  0.99665725     0.27000
C361        C  0.07335759  0.49387793  0.99161776     0.35700
C362        C  0.07169472  0.03919244  0.98841928     0.35700
C363        C  0.44837836  0.49389295  0.98209613     0.35700
C364        C  0.44918159  0.04524963  0.98262091     0.35700
C365        C  0.02482314  0.42597738  0.00325567    -0.21800
C366        C  0.49496550  0.42540021  0.99976606    -0.21800
C367        C  0.02696558  0.10512335  0.02267739    -0.21800
C368        C  0.49891132  0.10916162  0.00999916    -0.21800
C369        C  0.09822385  0.99907847  0.97428258    -0.22900
C370        C  0.09916383  0.02965156  0.97465860    -0.22900
C371        C  0.41971447  0.00767840  0.96835404    -0.22900
C372        C  0.42066379  0.03814323  0.97076652    -0.22900
C373        C  0.06393949  0.46389647  0.99152789    -0.18200
C374        C  0.45674858  0.46359247  0.98434079    -0.18200
C375        C  0.45900662  0.07416785  0.99132970    -0.18200
C376        C  0.06404122  0.06900203  0.99672515    -0.18200
H377        H  0.03866725  0.40692401  0.01050120     0.14700
H378        H  0.48072216  0.40713842  0.00867892     0.14700
H379        H  0.04173983  0.12274631  0.03162914     0.14700
H380        H  0.48541667  0.12795484  0.01913645     0.14700
H381        H  0.12188630  0.48924546  0.98128000     0.13000
H382        H  0.11803086  0.04327304  0.96643634     0.13000
H383        H  0.40039078  0.49110460  0.96833761     0.13000
H384        H  0.40235822  0.05328801  0.96503282     0.13000
H385        H  0.01014850  0.49391373  0.97641502     0.26200
H386        H  0.00873304  0.04207321  0.98371020     0.26200
C387        C  0.16291468  0.15580062  0.66568937     0.80300
N388        N  0.17163933  0.16553306  0.96686598    -0.78000
C389        C  0.19513599  0.18447831  0.96645726     0.82700
N390        N  0.21159276  0.19167249  0.66843138    -0.78000
C391        C  0.19787616  0.18307133  0.70274536     0.82800
N392        N  0.17350301  0.16531070  0.70129018    -0.79700
C393        C  0.32816962  0.21613701  0.92971961     0.42500
N394        N  0.30186108  0.22016080  0.87754530     0.01400
C395        C  0.28615428  0.34522826  0.75720868    -0.06500
H396        H  0.26770650  0.36097396  0.91475761     0.06900
C397        C  0.18390815  0.29163549  0.90804856    -0.06300
Co398      Co  0.31429211  0.27677861  0.83278964     0.74200
N399        N  0.28341374  0.32616838  0.87558156    -0.26000
Co400      Co  0.25113071  0.32084451  0.83170494     0.74100
C401        C  0.19075327  0.32001979  0.92657702     0.42600
N402        N  0.21281386  0.22470981  0.87745322     0.01000
N403        N  0.21847279  0.31460845  0.87516529     0.01100
N404        N  0.32744288  0.31631777  0.75948517    -0.46800
H405        H  0.35171722  0.26063399  0.91769440     0.06900
N406        N  0.30774242  0.30962943  0.87546113     0.01400
N407        N  0.21916354  0.31388975  0.78828943     0.01200
C408        C  0.19192508  0.31832515  0.73678364     0.42800
N409        N  0.23709646  0.20809505  0.87813641    -0.25500
C410        C  0.33899403  0.24181916  0.75967193    -0.06400
N411        N  0.30722154  0.20244482  0.90836285    -0.46600
N412        N  0.21331641  0.33179218  0.75775413    -0.46800
C413        C  0.33291711  0.21324559  0.74131236     0.42500
N414        N  0.30856416  0.30935232  0.78854816     0.01400
N415        N  0.23789954  0.20747728  0.79048399    -0.25500
N416        N  0.31834881  0.24442698  0.87735545    -0.26000
N417        N  0.21347734  0.22390062  0.79039084     0.01000
H418        H  0.25372368  0.17219489  0.75226735     0.06900
H419        H  0.16897700  0.27346462  0.74873910     0.07000
N420        N  0.28429188  0.32600256  0.78803678    -0.26000
N421        N  0.20204622  0.29029568  0.87617503    -0.25600
N422        N  0.30324520  0.21920283  0.79074495     0.01400
C423        C  0.31276681  0.33798894  0.92579894     0.42800
C424        C  0.23551913  0.18956565  0.90979385    -0.06900
N425        N  0.20273983  0.28955913  0.78855205    -0.25600
H426        H  0.16796742  0.27490934  0.91704149     0.06900
N427        N  0.32592831  0.31601520  0.90498093    -0.46900
H428        H  0.25211827  0.17326809  0.91837210     0.06900
C429        C  0.20837905  0.19447938  0.74096091     0.42600
C430        C  0.33582523  0.24382586  0.90952180    -0.06400
Co431      Co  0.27020533  0.21304721  0.83415733     0.73800
N432        N  0.19419179  0.21838590  0.90706416    -0.46600
C433        C  0.31496619  0.33906932  0.73883818     0.42900
N434        N  0.31030381  0.20057453  0.76172665    -0.46600
Co435      Co  0.20702106  0.25707131  0.83312476     0.73900
C436        C  0.18488509  0.29031181  0.75672760    -0.06900
C437        C  0.28446396  0.34472302  0.90673062    -0.06500
N438        N  0.31973180  0.24348860  0.79021820    -0.26000
N439        N  0.21238790  0.33298583  0.90477913    -0.46700
H440        H  0.26967689  0.36179979  0.74914920     0.06900
C441        C  0.23686350  0.18844897  0.75990540    -0.06900
Cl442      Cl  0.26065947  0.26692612  0.83275865    -0.49900
C443        C  0.20693165  0.19625658  0.92853085     0.42700
H444        H  0.35535031  0.25839967  0.75160698     0.06900
N445        N  0.19524378  0.21692318  0.76109475    -0.46600
C446        C  0.10776875  0.09115447  0.03028889    -0.12200
C447        C  0.08914507  0.09514728  0.65522386     0.04800
C448        C  0.10158164  0.10866419  0.62124752    -0.07500
C449        C  0.12502899  0.12878893  0.62536513    -0.08200
C450        C  0.13679357  0.13545957  0.66318392    -0.02800
C451        C  0.13093738  0.11179189  0.03263602     0.04000
N452        N  0.15045220  0.10974852  0.06589850     0.66500
H453        H  0.10506351  0.07462426  0.05375390     0.15400
H454        H  0.13430829  0.13880148  0.59863555     0.15100
N455        N  0.09108773  0.10141954  0.58245841     0.74200
O456        O  0.14252175  0.12120845  0.09845234    -0.39200
O457        O  0.15284556  0.10731167  0.75083831    -0.39200
O458        O  0.04937303  0.13035660  0.93568396    -0.39900
O459        O  0.10080931  0.07838675  0.56538291    -0.39900
C460        C  0.43249811  0.11670767  0.96045942    -0.12200
C461        C  0.44256339  0.10030911  0.66859837     0.04800
C462        C  0.43011324  0.11090681  0.70421580    -0.07500
C463        C  0.40905839  0.13388205  0.70300471    -0.08200
C464        C  0.39969877  0.14646240  0.66660111    -0.02800
C465        C  0.41129434  0.13950548  0.96086282     0.04000
N466        N  0.40933239  0.15864681  0.92674873     0.66500
H467        H  0.44623240  0.11361524  0.93419217     0.15400
H468        H  0.39969735  0.14148438  0.73091119     0.15100
N469        N  0.43819654  0.09823365  0.74178453     0.74200
O470        O  0.42595905  0.18114035  0.92436650    -0.39200
O471        O  0.39678014  0.14937977  0.89579078    -0.39200
O472        O  0.45652567  0.11173693  0.76329107    -0.39900
O473        O  0.42183250  0.07852223  0.75732862    -0.39900
C474        C  0.12126847  0.40635909  0.96015591    -0.12200
C475        C  0.13085338  0.39173313  0.66470075     0.04800
C476        C  0.11926938  0.40395239  0.70053332    -0.07500
C477        C  0.09891080  0.42754836  0.69905705    -0.08200
C478        C  0.08713209  0.44043154  0.99271385    -0.02800
C479        C  0.09994229  0.42920538  0.95772981     0.04000
N480        N  0.09134638  0.44087570  0.91971303     0.66500
H481        H  0.13069172  0.39793310  0.93272250     0.15400
H482        H  0.08999976  0.43646336  0.72655377     0.15100
N483        N  0.12680983  0.39215832  0.73881580     0.74200
O484        O  0.10292731  0.46192748  0.57492653    -0.39200
O485        O  0.06650655  0.43394360  0.90540788    -0.39200
O486        O  0.14447353  0.40638576  0.76048573    -0.39900
O487        O  0.10756044  0.37575354  0.08693829    -0.39900
C488        C  0.42007236  0.43490898  0.02417954    -0.12200
C489        C  0.43299284  0.44095649  0.98713731     0.04800
C490        C  0.42400870  0.42679258  0.62101546    -0.07500
C491        C  0.40033964  0.40674506  0.62508718    -0.08200
C492        C  0.38615339  0.40164840  0.66208260    -0.02800
C493        C  0.39736467  0.41393412  0.02827496     0.04000
N494        N  0.38208618  0.41583684  0.73334893     0.66500
H495        H  0.42765357  0.44671866  0.05018490     0.15400
H496        H  0.39280919  0.39544714  0.59868973     0.15100
N497        N  0.43626931  0.43159601  0.91527617     0.74200
O498        O  0.39806411  0.39176438  0.09086398    -0.39200
O499        O  0.36265605  0.43523438  0.74158083    -0.39200
O500        O  0.46148879  0.42098980  0.90667757    -0.39900
O501        O  0.45401177  0.41379232  0.56744289    -0.39900
C502        C  0.36063458  0.88061147  0.99466452     0.80300
N503        N  0.35461973  0.86716842  0.29843707    -0.78000
C504        C  0.33139602  0.84794725  0.29824858     0.82700
N505        N  0.31901557  0.83890347  0.33323143    -0.78000
C506        C  0.32901599  0.84945302  0.03254106     0.82800
N507        N  0.35038198  0.87061033  0.03049767    -0.79700
C508        C  0.15413736  0.87215838  0.99917334     0.80300
N509        N  0.16286134  0.85720403  0.29943327    -0.78000
C510        C  0.18344479  0.83499491  0.29924390     0.82700
N511        N  0.19273315  0.82282095  0.33413903    -0.78000
C512        C  0.18476966  0.83860952  0.03492688     0.82800
N513        N  0.16511894  0.86167693  0.03429338    -0.79700
C514        C  0.37549733  0.66901253  0.99788704     0.80300
N515        N  0.36204050  0.67890631  0.29681342    -0.78000
C516        C  0.34273823  0.70218102  0.29633721     0.82700
N517        N  0.33289440  0.71232035  0.99913292    -0.78000
C518        C  0.34434377  0.70189174  0.03382914     0.82800
N519        N  0.36545445  0.68010198  0.03319242    -0.79700
N520        N  0.00832706  0.97038898  0.32672946    -0.36600
N521        N  0.06130778  0.51609739  0.31541112    -0.57100
N522        N  0.01592425  0.56206957  0.32596062    -0.36500
N523        N  0.46460869  0.51669350  0.33447343    -0.57100
C524        C  0.03244013  0.95284494  0.32131436     0.27000
C525        C  0.48846726  0.95763582  0.32969573     0.27000
C526        C  0.03990782  0.57937589  0.31874124     0.27000
C527        C  0.48666173  0.57998648  0.34229966     0.27000
C528        C  0.07188020  0.99057904  0.33419881     0.35700
C529        C  0.07940445  0.53994921  0.31545158     0.35700
C530        C  0.44992971  0.99738981  0.32170113     0.35700
C531        C  0.44687966  0.54098850  0.33637783     0.35700
C532        C  0.02346734  0.92473234  0.30959125    -0.21800
C533        C  0.49702768  0.92895375  0.34041820    -0.21800
C534        C  0.03081359  0.60864560  0.31292647    -0.21800
C535        C  0.49567243  0.60933327  0.34650234    -0.21800
C536        C  0.10852988  0.50033869  0.31092440    -0.22900
C537        C  0.10880477  0.53080791  0.31281545    -0.22900
C538        C  0.41734441  0.50238595  0.32727995    -0.22900
C539        C  0.41742509  0.53269152  0.33224927    -0.22900
C540        C  0.06218628  0.96102125  0.32855039    -0.18200
C541        C  0.45862044  0.96724268  0.32616955    -0.18200
C542        C  0.45662168  0.57068504  0.34107229    -0.18200
C543        C  0.06992228  0.56991760  0.31786822    -0.18200
H544        H  0.03740649  0.90557089  0.30345410     0.14700
H545        H  0.48282375  0.91037875  0.34814998     0.14700
H546        H  0.04463299  0.62779115  0.30656387     0.14700
H547        H  0.48173527  0.62883817  0.35033885     0.14700
H548        H  0.11902955  0.98366620  0.35097070     0.13000
H549        H  0.12844631  0.54459603  0.31243566     0.13000
H550        H  0.40156475  0.99364597  0.31082602     0.13000
H551        H  0.39798538  0.54698308  0.33262825     0.13000
H552        H  0.00836150  0.99179028  0.33781479     0.26200
H553        H  0.01629222  0.53963881  0.33318654     0.26200
C554        C  0.15793801  0.66020758  0.00515276     0.80300
N555        N  0.17376695  0.67083572  0.29684702    -0.78000
C556        C  0.19705963  0.68978562  0.29819653     0.82700
N557        N  0.20554773  0.69759886  0.00045951    -0.78000
C558        C  0.19438246  0.68947314  0.03654793     0.82800
N559        N  0.17064235  0.67092139  0.03877968    -0.79700
C560        C  0.33183168  0.71371942  0.25859514     0.42500
N561        N  0.30397680  0.72026026  0.20813816     0.01400
C562        C  0.29098288  0.84697104  0.09149025    -0.06500
H563        H  0.27550386  0.86183595  0.25038057     0.06900
C564        C  0.18757392  0.79662307  0.24150577    -0.06300
Co565      Co  0.31792078  0.77703967  0.16508988     0.74200
N566        N  0.28952465  0.82702608  0.21020494    -0.26000
Co567      Co  0.25650293  0.82420487  0.16685369     0.74100
C568        C  0.19546102  0.82403255  0.26151106     0.42600
N569        N  0.21498946  0.72967684  0.20955538     0.01000
N570        N  0.22382966  0.81860253  0.21071629     0.01100
N571        N  0.33058188  0.81564790  0.09147220    -0.46800
H572        H  0.35661292  0.75762631  0.24736808     0.06900
N573        N  0.31316204  0.80947391  0.20929030     0.01400
N574        N  0.22372892  0.81997429  0.12349557     0.01200
C575        C  0.19582980  0.82692222  0.07288243     0.42800
N576        N  0.23856061  0.71203311  0.20952842    -0.25500
C577        C  0.34069841  0.74166588  0.09048702    -0.06400
N578        N  0.30938927  0.70164739  0.23805545    -0.46600
N579        N  0.21822162  0.83885102  0.09379720    -0.46800
C580        C  0.33309056  0.71353164  0.07173946     0.42500
N581        N  0.31262460  0.81026514  0.12204475     0.01400
N582        N  0.23809084  0.71249458  0.12195531    -0.25500
N583        N  0.32149989  0.74375946  0.20819620    -0.26000
N584        N  0.21461528  0.73027103  0.12252220     0.01000
H585        H  0.25126725  0.67645747  0.08321874     0.06900
H586        H  0.17140395  0.78268848  0.08346916     0.07000
N587        N  0.28926930  0.82820410  0.12274927    -0.26000
N588        N  0.20623020  0.79516146  0.21029103    -0.25600
N589        N  0.30387363  0.72078673  0.12133068     0.01400
C590        C  0.31964013  0.83695723  0.26041301     0.42800
C591        C  0.23698439  0.69378503  0.24138612    -0.06900
N592        N  0.20636426  0.79634322  0.12302573    -0.25600
H593        H  0.17061574  0.78055473  0.24913777     0.06900
N594        N  0.33174340  0.81464085  0.23893500    -0.46900
H595        H  0.25310616  0.67690464  0.24958126     0.06900
C596        C  0.20729091  0.70164866  0.07290585     0.42600
C597        C  0.33985916  0.74164205  0.23932478    -0.06400
Co598      Co  0.27119925  0.71568491  0.16517765     0.73800
N599        N  0.19685536  0.72440502  0.23998048    -0.46600
C600        C  0.31843920  0.83869401  0.07123850     0.42900
N601        N  0.30986094  0.70201787  0.09207178    -0.46600
Co602      Co  0.20986877  0.76278934  0.16625752     0.73900
C603        C  0.18807519  0.79868138  0.09177866    -0.06900
C604        C  0.29155471  0.84504907  0.24176880    -0.06500
N605        N  0.32158114  0.74417884  0.12116847    -0.26000
N606        N  0.21816816  0.83650018  0.24106459    -0.46700
H607        H  0.27492251  0.86403503  0.08376634     0.06900
C608        C  0.23556790  0.69374266  0.09122555    -0.06900
Cl609      Cl  0.26388324  0.76992817  0.16575910    -0.49900
C610        C  0.20938433  0.70212341  0.26125831     0.42700
H611        H  0.35800445  0.75731475  0.08268469     0.06900
N612        N  0.19558898  0.72450227  0.09366835    -0.46600
C613        C  0.10008617  0.60419932  0.35798784    -0.12200
C614        C  0.08679877  0.59516994  0.00809636     0.04800
C615        C  0.09338085  0.61131153  0.97315590    -0.07500
C616        C  0.11615558  0.63255350  0.97293228    -0.08200
C617        C  0.13259811  0.63855059  0.00755059    -0.02800
C618        C  0.12205645  0.62579194  0.36236106     0.04000
N619        N  0.12836503  0.63574128  0.40164863     0.66500
H620        H  0.08861092  0.59571442  0.38416057     0.15400
H621        H  0.12100584  0.64430013  0.94536305     0.15100
N622        N  0.07720214  0.60587802  0.93751660     0.74200
O623        O  0.11128998  0.65462754  0.41757294    -0.39200
O624        O  0.16035418  0.61060103  0.09042228    -0.39200
O625        O  0.07682843  0.59812460  0.23205875    -0.39900
O626        O  0.08467383  0.58432793  0.91571067    -0.39900
C627        C  0.42746472  0.60708497  0.30215768    -0.12200
C628        C  0.43788322  0.59569662  0.99731817     0.04800
C629        C  0.41839240  0.60002264  0.02975199    -0.07500
C630        C  0.39888824  0.62445026  0.02965546    -0.08200
C631        C  0.39780140  0.64446661  0.99724906    -0.02800
C632        C  0.40747214  0.63081152  0.29864335     0.04000
N633        N  0.40304476  0.64359258  0.26001534     0.66500
H634        H  0.43859716  0.59880015  0.27574506     0.15400
H635        H  0.38392404  0.62725955  0.05473195     0.15100
N636        N  0.41785837  0.57976580  0.06281163     0.74200
O637        O  0.42182020  0.66194049  0.24657679    -0.39200
O638        O  0.38594427  0.63077073  0.23608029    -0.39200
O639        O  0.42817919  0.58801020  0.09572383    -0.39900
O640        O  0.40024218  0.55800670  0.06221752    -0.39900
C641        C  0.12266426  0.90688379  0.29785478    -0.12200
C642        C  0.13083509  0.89588295  0.99849599     0.04800
C643        C  0.12628682  0.91565081  0.03067605    -0.07500
C644        C  0.10287205  0.93623858  0.02958821    -0.08200
C645        C  0.08479677  0.93702085  0.32982018    -0.02800
C646        C  0.10115507  0.92945467  0.29571484     0.04000
N647        N  0.09612464  0.94476444  0.25884606     0.66500
H648        H  0.13496290  0.90147592  0.27105771     0.15400
H649        H  0.09972285  0.95140171  0.05420420     0.15100
N650        N  0.14613813  0.91655099  0.06362797     0.74200
O651        O  0.07919052  0.94141015  0.90251550    -0.39200
O652        O  0.07423009  0.93773677  0.23771591    -0.39200
O653        O  0.16591742  0.93635820  0.06405932    -0.39900
O654        O  0.09936215  0.86497188  0.41693526    -0.39900
C655        C  0.42333189  0.93551618  0.36492842    -0.12200
C656        C  0.43508766  0.94419215  0.32805393     0.04800
C657        C  0.42287688  0.92875371  0.95307939    -0.07500
C658        C  0.39983993  0.90800237  0.95614917    -0.08200
C659        C  0.38422458  0.90373124  0.99229064    -0.02800
C660        C  0.40136269  0.91355405  0.36774489     0.04000
N661        N  0.37511283  0.92089373  0.06160614     0.66500
H662        H  0.43140739  0.94581889  0.39180039     0.15400
H663        H  0.39433213  0.89512241  0.93014055     0.15100
N664        N  0.43708143  0.93880578  0.25542310     0.74200
O665        O  0.40614837  0.88830943  0.42794040    -0.39200
O666        O  0.35542627  0.94051695  0.06747849    -0.39200
O667        O  0.46239052  0.92921718  0.24530061    -0.39900
O668        O  0.42707665  0.95310018  0.89195030    -0.39900
C669        C  0.36567663  0.87755318  0.33335438     0.80300
N670        N  0.35074958  0.86733296  0.62908617    -0.78000
C671        C  0.32882938  0.84663687  0.63011265     0.82700
N672        N  0.31780589  0.83703696  0.66562157    -0.78000
C673        C  0.33004679  0.84863594  0.36827824     0.82800
N674        N  0.35337594  0.86778610  0.36824943    -0.79700
C675        C  0.15137252  0.86745489  0.33435258     0.80300
N676        N  0.16373973  0.85666540  0.62909242    -0.78000
C677        C  0.18198556  0.83255357  0.63135408     0.82700
N678        N  0.19060077  0.82189646  0.66740760    -0.78000
C679        C  0.18170365  0.83307676  0.36911666     0.82800
N680        N  0.16120814  0.85537934  0.36917221    -0.79700
C681        C  0.37174670  0.66736261  0.33190284     0.80300
N682        N  0.35944199  0.67836293  0.63024134    -0.78000
C683        C  0.33987334  0.70121459  0.63181648     0.82700
N684        N  0.33277501  0.71398143  0.33099605    -0.78000
C685        C  0.34200511  0.70224677  0.36615008     0.82800
N686        N  0.36130161  0.67902376  0.36649378    -0.79700
N687        N  0.01003624  0.97325721  0.65137979    -0.36600
N688        N  0.05827749  0.51649454  0.66928236    -0.57100
N689        N  0.01292325  0.56274549  0.66801578    -0.36500
N690        N  0.46731134  0.51898866  0.65453229    -0.57100
C691        C  0.03415324  0.95506784  0.65159168     0.27000
C692        C  0.48419997  0.95675317  0.66112415     0.27000
C693        C  0.03655369  0.57817183  0.68104658     0.27000
C694        C  0.48965588  0.58237477  0.66102036     0.27000
C695        C  0.07432057  0.99387317  0.64843002     0.35700
C696        C  0.07603305  0.54063140  0.66784380     0.35700
C697        C  0.44800183  0.99847164  0.65560103     0.35700
C698        C  0.44976473  0.54343124  0.65565396     0.35700
C699        C  0.02481582  0.92573732  0.65522065    -0.21800
C700        C  0.49118507  0.92803073  0.67352741    -0.21800
C701        C  0.02706054  0.60452850  0.69822738    -0.21800
C702        C  0.49852524  0.61139277  0.66836398    -0.21800
C703        C  0.10510618  0.50165137  0.65706236    -0.22900
C704        C  0.10514927  0.53209026  0.66032119    -0.22900
C705        C  0.41978471  0.50462338  0.65229384    -0.22900
C706        C  0.42017454  0.53511632  0.65421087    -0.22900
C707        C  0.06441328  0.96394791  0.64962048    -0.18200
C708        C  0.45497366  0.96778431  0.65673207    -0.18200
C709        C  0.45965285  0.57315759  0.65937178    -0.18200
C710        C  0.06652843  0.57010305  0.67515572    -0.18200
H711        H  0.03853112  0.90587919  0.65664652     0.14700
H712        H  0.47595261  0.91048505  0.68204347     0.14700
H713        H  0.04071045  0.62178290  0.71083414     0.14700
H714        H  0.48452247  0.63061551  0.67386152     0.14700
H715        H  0.12332248  0.98799090  0.64622769     0.13000
H716        H  0.12448004  0.54622182  0.65787433     0.13000
H717        H  0.39946251  0.99806442  0.64497251     0.13000
H718        H  0.40079800  0.54948500  0.65490893     0.13000
H719        H  0.01017199  0.99603322  0.64844337     0.26200
H720        H  0.01370720  0.54341985  0.65135560     0.26200
C721        C  0.16168115  0.65938368  0.33086943     0.80300
N722        N  0.17210955  0.66565772  0.63455504    -0.78000
C723        C  0.19566520  0.68450679  0.63234854     0.82700
N724        N  0.20842419  0.69768373  0.33383947    -0.78000
C725        C  0.19622990  0.68688448  0.36805202     0.82800
N726        N  0.17290028  0.66785579  0.36652120    -0.79700
C727        C  0.32806599  0.71323900  0.59507616     0.42500
N728        N  0.30245869  0.71763623  0.54238692     0.01400
C729        C  0.28930630  0.84402857  0.42459283    -0.06500
H730        H  0.27242677  0.85898828  0.58265238     0.06900
C731        C  0.18657054  0.79168980  0.57609187    -0.06300
Co732      Co  0.31606675  0.77446905  0.49893998     0.74200
N733        N  0.28695678  0.82398429  0.54309071    -0.26000
Co734      Co  0.25416828  0.82003261  0.49959921     0.74100
C735        C  0.19427766  0.81970403  0.59495291     0.42600
N736        N  0.21369229  0.72424781  0.54350377     0.01000
N737        N  0.22177821  0.81396288  0.54348965     0.01100
N738        N  0.32989059  0.81410021  0.42658884    -0.46800
H739        H  0.35282875  0.75703043  0.58332364     0.06900
N740        N  0.31082845  0.80680000  0.54256606     0.01400
N741        N  0.22153685  0.81462891  0.45666349     0.01200
C742        C  0.19306337  0.82118552  0.40667385     0.42800
N743        N  0.23743757  0.70687086  0.54345267    -0.25500
C744        C  0.33793430  0.74107616  0.42330219    -0.06400
N745        N  0.30701821  0.69993478  0.57344662    -0.46600
N746        N  0.21560885  0.83330164  0.42697443    -0.46800
C747        C  0.33016947  0.71354234  0.40359515     0.42500
N748        N  0.31096491  0.80763328  0.45572737     0.01400
N749        N  0.23753384  0.70785181  0.45600033    -0.25500
N750        N  0.31955514  0.74146616  0.54243347    -0.26000
N751        N  0.21367385  0.72507774  0.45669772     0.01000
H752        H  0.25195431  0.67283394  0.41638612     0.06900
H753        H  0.16891284  0.77686505  0.41813104     0.07000
N754        N  0.28709665  0.82484576  0.45547113    -0.26000
N755        N  0.20468817  0.79011010  0.54423429    -0.25600
N756        N  0.30284714  0.71816057  0.45540317     0.01400
C757        C  0.31690357  0.83479010  0.59303583     0.42800
C758        C  0.23533784  0.68774129  0.57444511    -0.06900
N759        N  0.20428945  0.79089243  0.45683741    -0.25600
H760        H  0.17000238  0.77546342  0.58466565     0.06900
N761        N  0.32937616  0.81251683  0.57198965    -0.46900
H762        H  0.25147329  0.67080310  0.58240324     0.06900
C763        C  0.20733443  0.69692752  0.40644047     0.42600
C764        C  0.33676990  0.74049452  0.57478452    -0.06400
Co765      Co  0.27031557  0.71185512  0.49926256     0.73800
N766        N  0.19502093  0.71798229  0.57301965    -0.46600
C767        C  0.31788439  0.83703149  0.40596488     0.42900
N768        N  0.30835461  0.70041129  0.42492435    -0.46600
Co769      Co  0.20838617  0.75753506  0.50033378     0.73900
C770        C  0.18561660  0.79297394  0.42593559    -0.06900
C771        C  0.28870163  0.84233853  0.57432407    -0.06500
N772        N  0.31990298  0.74203787  0.45519808    -0.26000
N773        N  0.21615914  0.83230420  0.57326058    -0.46700
H774        H  0.27321461  0.86100349  0.41662565     0.06900
C775        C  0.23567420  0.68944832  0.42484198    -0.06900
Cl776      Cl  0.26220773  0.76596062  0.49942250    -0.49900
C777        C  0.20693879  0.69492204  0.59351034     0.42700
H778        H  0.35428090  0.75759318  0.41497876     0.06900
N779        N  0.19507787  0.71937693  0.42737727    -0.46600
C780        C  0.10919287  0.59541193  0.70692690    -0.12200
C781        C  0.09295809  0.59319618  0.32052819     0.04800
C782        C  0.10793133  0.60390964  0.28663350    -0.07500
C783        C  0.12985493  0.62563796  0.29067239    -0.08200
C784        C  0.13738196  0.63697355  0.32836625    -0.02800
C785        C  0.13243847  0.61594934  0.70611606     0.04000
N786        N  0.15370940  0.61463377  0.73744787     0.66500
H787        H  0.10740848  0.57972970  0.73155845     0.15400
H788        H  0.14117178  0.63338648  0.26402391     0.15100
N789        N  0.10146820  0.59235328  0.24815055     0.74200
O790        O  0.14706872  0.62547971  0.77087154    -0.39200
O791        O  0.14506740  0.62005456  0.42353099    -0.39200
O792        O  0.04794417  0.62868261  0.61161870    -0.39900
O793        O  0.11827995  0.57279698  0.23319534    -0.39900
C794        C  0.42627932  0.60873537  0.62533513    -0.12200
C795        C  0.43386656  0.59442955  0.33927753     0.04800
C796        C  0.41986707  0.60538345  0.37361868    -0.07500
C797        C  0.39965526  0.62892370  0.37030355    -0.08200
C798        C  0.39312603  0.64207480  0.33311353    -0.02800
C799        C  0.40423226  0.63070425  0.62516620     0.04000
N800        N  0.39357085  0.64087459  0.58738801     0.66500
H801        H  0.43506130  0.60063273  0.59730502     0.15400
H802        H  0.38913868  0.63690351  0.39727908     0.15100
N803        N  0.42621214  0.59317982  0.41207522     0.74200
O804        O  0.40961368  0.65795450  0.56647393    -0.39200
O805        O  0.37304866  0.62660846  0.57084246    -0.39200
O806        O  0.44143786  0.60815986  0.43603736    -0.39900
O807        O  0.41066287  0.57192972  0.42527566    -0.39900
C808        C  0.11684610  0.90032402  0.62310697    -0.12200
C809        C  0.12843160  0.89161629  0.33394693     0.04800
C810        C  0.11189147  0.89982421  0.36834148    -0.07500
C811        C  0.09024983  0.92222864  0.36577573    -0.08200
C812        C  0.08757681  0.94023682  0.65228594    -0.02800
C813        C  0.09528390  0.92284279  0.61924265     0.04000
N814        N  0.08207782  0.92865059  0.58134720     0.66500
H815        H  0.12184345  0.88673529  0.59742888     0.15400
H816        H  0.07768738  0.92828136  0.39213996     0.15100
N817        N  0.11641988  0.88579601  0.40617375     0.74200
O818        O  0.10968900  0.96874903  0.25153995    -0.39200
O819        O  0.05821151  0.91589205  0.57221465    -0.39200
O820        O  0.13111866  0.89931205  0.43220414    -0.39900
O821        O  0.13178451  0.90117343  0.75802953    -0.39900
C822        C  0.41339714  0.94238775  0.69205812    -0.12200
C823        C  0.43030317  0.94589838  0.65735993     0.04800
C824        C  0.42499053  0.93051346  0.29334770    -0.07500
C825        C  0.40275846  0.90880161  0.29577256    -0.08200
C826        C  0.39033045  0.89998054  0.33275119    -0.02800
C827        C  0.39076291  0.92118882  0.69448675     0.04000
N828        N  0.39071621  0.90560067  0.40651255     0.66500
H829        H  0.41764426  0.95648866  0.71739108     0.15400
H830        H  0.39522686  0.89890169  0.26838440     0.15100
N831        N  0.43979821  0.93278217  0.58748708     0.74200
O832        O  0.38283263  0.90884909  0.76093879    -0.39200
O833        O  0.37113626  0.92170213  0.42275883    -0.39200
O834        O  0.46497753  0.92096522  0.58213778    -0.39900
O835        O  0.42557146  0.96019843  0.23624642    -0.39900
C836        C  0.36165905  0.87875054  0.66343478     0.80300
N837        N  0.34953291  0.86866862  0.96079849    -0.78000
C838        C  0.32817978  0.84746150  0.96269032     0.82700
N839        N  0.31781896  0.83796054  0.99860757    -0.78000
C840        C  0.32885852  0.84777265  0.70007500     0.82800
N841        N  0.35073731  0.86853354  0.69892166    -0.79700
C842        C  0.15368508  0.87023291  0.66265973     0.80300
N843        N  0.16336033  0.85937152  0.96459918    -0.78000
C844        C  0.18294868  0.83624831  0.96508661     0.82700
N845        N  0.19350113  0.82578036  0.00031734    -0.78000
C846        C  0.18116107  0.83543021  0.70118143     0.82800
N847        N  0.16276748  0.85956437  0.69877068    -0.79700
C848        C  0.37022233  0.66589596  0.66402792     0.80300
N849        N  0.36367758  0.67951721  0.96336859    -0.78000
C850        C  0.34242092  0.70102897  0.96397084     0.82700
N851        N  0.33063048  0.71193442  0.66740980    -0.78000
C852        C  0.34088562  0.69941695  0.70158385     0.82800
N853        N  0.36062439  0.67642128  0.69986725    -0.79700
N854        N  0.00705632  0.97075094  0.99669372    -0.36600
N855        N  0.05576294  0.51752000  0.99971660    -0.57100
N856        N  0.01011398  0.56276297  0.00412452    -0.36500
N857        N  0.46649433  0.51689643  0.99027171    -0.57100
C858        C  0.03119900  0.95362054  0.00412596     0.27000
C859        C  0.48442186  0.95707438  0.99263351     0.27000
C860        C  0.03400015  0.57921201  0.01410481     0.27000
C861        C  0.49023259  0.57817605  0.99983867     0.27000
C862        C  0.07019110  0.99106897  0.98781377     0.35700
C863        C  0.07351702  0.54174053  0.99950785     0.35700
C864        C  0.44765321  0.99732425  0.97895743     0.35700
C865        C  0.44966037  0.54184965  0.98792721     0.35700
C866        C  0.02221744  0.92612335  0.01898270    -0.21800
C867        C  0.49156913  0.92888094  0.00698188    -0.21800
C868        C  0.02453829  0.60633041  0.02913527    -0.21800
C869        C  0.50060778  0.60492445  0.01454691    -0.21800
C870        C  0.10255997  0.50302507  0.98701627    -0.22900
C871        C  0.10263383  0.53336147  0.99183273    -0.22900
C872        C  0.41982647  0.50419560  0.97497517    -0.22900
C873        C  0.42066650  0.53464561  0.97849468    -0.22900
C874        C  0.06092462  0.96160893  0.99561977    -0.18200
C875        C  0.45528457  0.96714667  0.98460485    -0.18200
C876        C  0.45983291  0.57086434  0.99605940    -0.18200
C877        C  0.06406333  0.57116157  0.00779049    -0.18200
H878        H  0.03623363  0.90743412  0.02730509     0.14700
H879        H  0.47643951  0.91106109  0.01474461     0.14700
H880        H  0.03822114  0.62449855  0.03917105     0.14700
H881        H  0.48755764  0.62316942  0.02637513     0.14700
H882        H  0.11627227  0.98440361  0.96572578     0.13000
H883        H  0.12197976  0.54754387  0.99040738     0.13000
H884        H  0.40049642  0.99461459  0.96061226     0.13000
H885        H  0.40199875  0.54971428  0.97496516     0.13000
H886        H  0.00705974  0.99162201  0.98311333     0.26200
H887        H  0.01041034  0.54251503  0.98968612     0.26200
C888        C  0.16067493  0.65730339  0.67063401     0.80300
N889        N  0.16903828  0.66908954  0.96900963    -0.78000
C890        C  0.19286445  0.68763061  0.96658835     0.82700
N891        N  0.20741034  0.69550591  0.66628887    -0.78000
C892        C  0.19560479  0.68786161  0.70221923     0.82800
N893        N  0.17235912  0.66885205  0.70427031    -0.79700
C894        C  0.33002604  0.71229741  0.92679562     0.42500
N895        N  0.30122013  0.71831666  0.87711877     0.01400
C896        C  0.28916339  0.84437964  0.75731327    -0.06500
H897        H  0.27244473  0.86044096  0.91466120     0.06900
C898        C  0.18559815  0.79560587  0.90914026    -0.06300
Co899      Co  0.31516921  0.77458399  0.83214427     0.74200
N900        N  0.28662068  0.82504297  0.87552951    -0.26000
Co901      Co  0.25377274  0.82170511  0.83221359     0.74100
C902        C  0.19385427  0.82366546  0.92762272     0.42600
N903        N  0.21176337  0.72708407  0.87744661     0.01000
N904        N  0.22124970  0.81681598  0.87621879     0.01100
N905        N  0.32897129  0.81338260  0.75872910    -0.46800
H906        H  0.35488073  0.75583466  0.91352384     0.06900
N907        N  0.31012629  0.80731544  0.87544021     0.01400
N908        N  0.22083086  0.81705858  0.78929545     0.01200
C909        C  0.19164030  0.82437833  0.73992161     0.42800
N910        N  0.23531831  0.70941133  0.87789316    -0.25500
C911        C  0.33769069  0.73898796  0.75813422    -0.06400
N912        N  0.30712840  0.70001524  0.90727388    -0.46600
N913        N  0.21477628  0.83593394  0.75978357    -0.46800
C914        C  0.33035322  0.71060292  0.74003203     0.42500
N915        N  0.31020360  0.80750075  0.78829811     0.01400
N916        N  0.23607175  0.70990453  0.79032390    -0.25500
N917        N  0.31884850  0.74175204  0.87607216    -0.26000
N918        N  0.21249522  0.72758237  0.79018220     0.01000
H919        H  0.25110144  0.67514475  0.75073116     0.06900
H920        H  0.16723668  0.78022785  0.75168574     0.07000
N921        N  0.28674564  0.82531190  0.78821322    -0.26000
N922        N  0.20366949  0.79332972  0.87727746    -0.25600
N923        N  0.30157671  0.71775919  0.79014312     0.01400
C924        C  0.31610899  0.83513456  0.92606930     0.42800
C925        C  0.23276610  0.69046929  0.90900980    -0.06900
N926        N  0.20326612  0.79357899  0.78972699    -0.25600
H927        H  0.16880090  0.77973220  0.91809468     0.06900
N928        N  0.32841746  0.81261177  0.90530213    -0.46900
H929        H  0.24862514  0.67333503  0.91721710     0.06900
C930        C  0.20752381  0.70039900  0.73873771     0.42600
C931        C  0.33779532  0.73990595  0.90656717    -0.06400
Co932      Co  0.26860280  0.71311964  0.83398702     0.73800
N933        N  0.19281677  0.72114404  0.90684270    -0.46600
C934        C  0.31732437  0.83663133  0.73829456     0.42900
N935        N  0.30753334  0.69885898  0.76100633    -0.46600
Co936      Co  0.20707232  0.76028012  0.83367248     0.73900
C937        C  0.18428290  0.79606216  0.75916982    -0.06900
C938        C  0.28844511  0.84343606  0.90666960    -0.06500
N939        N  0.31892710  0.74139636  0.78915899    -0.26000
N940        N  0.21612442  0.83547147  0.90582568    -0.46700
H941        H  0.27338597  0.86168537  0.74947932     0.06900
C942        C  0.23485327  0.69191146  0.75872768    -0.06900
Cl943      Cl  0.26114095  0.76740605  0.83297032    -0.49900
C944        C  0.20430666  0.69797013  0.92766288     0.42700
H945        H  0.35455747  0.75492326  0.74963723     0.06900
N946        N  0.19466558  0.72250004  0.75976588    -0.46600
C947        C  0.10237598  0.60131190  0.04289683    -0.12200
C948        C  0.08909712  0.59400604  0.67551976     0.04800
C949        C  0.09156607  0.61420277  0.64340672    -0.07500
C950        C  0.11473092  0.63492513  0.64247360    -0.08200
C951        C  0.13565621  0.63587911  0.67336394    -0.02800
C952        C  0.12484284  0.62291133  0.04316324     0.04000
N953        N  0.13973633  0.62805164  0.07985121     0.66500
H954        H  0.09719230  0.58907555  0.07000394     0.15400
H955        H  0.11653582  0.65008944  0.61729529     0.15100
N956        N  0.07128336  0.61300034  0.61089083     0.74200
O957        O  0.12746940  0.64443315  0.10554651    -0.39200
O958        O  0.17493091  0.59624393  0.73506757    -0.39200
O959        O  0.05209576  0.61798562  0.93279591    -0.39900
O960        O  0.07383504  0.59251296  0.58561165    -0.39900
C961        C  0.43717032  0.61573225  0.96518766    -0.12200
C962        C  0.43668503  0.59669551  0.66105386     0.04800
C963        C  0.42506308  0.60679400  0.69740669    -0.07500
C964        C  0.40349085  0.62922438  0.69757708    -0.08200
C965        C  0.39270816  0.64158975  0.66183943    -0.02800
C966        C  0.41732674  0.63981091  0.96461805     0.04000
N967        N  0.41798534  0.65953395  0.93099366     0.66500
H968        H  0.45220462  0.61259012  0.94023004     0.15400
H969        H  0.39507481  0.63676943  0.72603726     0.15100
N970        N  0.43461350  0.59417028  0.73436016     0.74200
O971        O  0.43722785  0.67985818  0.92966217    -0.39200
O972        O  0.40591102  0.65148631  0.89907929    -0.39200
O973        O  0.45263109  0.60839018  0.75550359    -0.39900
O974        O  0.41973467  0.57332543  0.74996060    -0.39900
C975        C  0.11206588  0.89842241  0.96514037    -0.12200
C976        C  0.13188665  0.89542514  0.65941028     0.04800
C977        C  0.12521786  0.91447060  0.69170659    -0.07500
C978        C  0.10275390  0.93601306  0.68812595    -0.08200
C979        C  0.08409844  0.93812618  0.99670547    -0.02800
C980        C  0.08897889  0.91946355  0.96402506     0.04000
N981        N  0.07146838  0.92275706  0.92889653     0.66500
H982        H  0.11517611  0.88396645  0.93980245     0.15400
H983        H  0.09765626  0.95019763  0.71322217     0.15100
N984        N  0.14226754  0.91384562  0.72739574     0.74200
O985        O  0.09121315  0.95025379  0.56038569    -0.39200
O986        O  0.04570410  0.91189187  0.92801000    -0.39200
O987        O  0.16303483  0.93235672  0.73118336    -0.39900
O988        O  0.13878869  0.90389893  0.09587849    -0.39900
C989        C  0.41506214  0.94194033  0.02208483    -0.12200
C990        C  0.43089452  0.94528880  0.98650594     0.04800
C991        C  0.42428129  0.92805214  0.62423989    -0.07500
C992        C  0.40207150  0.90625346  0.62674596    -0.08200
C993        C  0.38514814  0.90220737  0.66188639    -0.02800
C994        C  0.39170383  0.92169632  0.02524878     0.04000
N995        N  0.37270701  0.92061461  0.72954394     0.66500
H996        H  0.42070478  0.95545802  0.04749180     0.15400
H997        H  0.39804709  0.89254168  0.60099532     0.15100
N998        N  0.43734602  0.93368706  0.91563333     0.74200
O999        O  0.38535385  0.90651540  0.09096553    -0.39200
O1000       O  0.35088403  0.93828402  0.73190210    -0.39200
O1001       O  0.46310401  0.92334543  0.90983756    -0.39900
O1002       O  0.43098764  0.95295232  0.56386427    -0.39900
C1003       C  0.85795988  0.38001547  0.99507920     0.80300
N1004       N  0.84996631  0.37082699  0.29201905    -0.78000
C1005       C  0.82446270  0.35448186  0.29162323     0.82700
N1006       N  0.81121815  0.34666633  0.32659227    -0.78000
C1007       C  0.82157603  0.35260191  0.03020345     0.82800
N1008       N  0.84589462  0.37033893  0.03001512    -0.79700
C1009       C  0.64979161  0.36402548  0.99221521     0.80300
N1010       N  0.65944673  0.35455685  0.29438831    -0.78000
C1011       C  0.67644064  0.32946914  0.29436434     0.82700
N1012       N  0.68522972  0.31707975  0.32938510    -0.78000
C1013       C  0.67742642  0.32908399  0.02993399     0.82800
N1014       N  0.65915544  0.35325121  0.02801581    -0.79700
C1015       C  0.87546826  0.17227058  0.99620274     0.80300
N1016       N  0.86002681  0.18031056  0.29383296    -0.78000
C1017       C  0.84375625  0.20586268  0.29406058     0.82700
N1018       N  0.83769798  0.21993591  0.99560318    -0.78000
C1019       C  0.84626999  0.20759151  0.03075743     0.82800
N1020       N  0.86489424  0.18372139  0.03092739    -0.79700
N1021       N  0.51037307  0.47143973  0.32234332    -0.36600
N1022       N  0.55982410  0.01873008  0.32500807    -0.57100
N1023       N  0.51506876  0.06563276  0.32417018    -0.36500
N1024       N  0.96355160  0.01742314  0.32354076    -0.57100
C1025       C  0.53466279  0.45388444  0.32709006     0.27000
C1026       C  0.99105488  0.45332290  0.32744576     0.27000
C1027       C  0.53943844  0.08152227  0.33346067     0.27000
C1028       C  0.98655481  0.07979493  0.32383732     0.27000
C1029       C  0.57417444  0.49297728  0.32388265     0.35700
C1030       C  0.57788532  0.04251319  0.32122214     0.35700
C1031       C  0.95162022  0.49284086  0.33036512     0.35700
C1032       C  0.94649547  0.04172244  0.33044536     0.35700
C1033       C  0.52589640  0.42470643  0.33415710    -0.21800
C1034       C  0.00039849  0.42428239  0.33449486    -0.21800
C1035       C  0.53095571  0.10928370  0.34743636    -0.21800
C1036       C  0.99618235  0.10799741  0.31269547    -0.21800
C1037       C  0.60593697  0.00266535  0.31105184    -0.22900
C1038       C  0.60660534  0.03322866  0.31266129    -0.22900
C1039       C  0.91675907  0.00278536  0.33562632    -0.22900
C1040       C  0.91739423  0.03328079  0.33778390    -0.22900
C1041       C  0.56460039  0.46314894  0.32469400    -0.18200
C1042       C  0.96099558  0.46271591  0.32872446    -0.18200
C1043       C  0.95639234  0.07155021  0.32830860    -0.18200
C1044       C  0.56917974  0.07232022  0.32792116    -0.18200
H1045       H  0.53996041  0.40537475  0.33889654     0.14700
H1046       H  0.98680791  0.40520340  0.34199872     0.14700
H1047       H  0.54522549  0.12716487  0.35692525     0.14700
H1048       H  0.98259561  0.12716624  0.30507793     0.14700
H1049       H  0.62291533  0.48767536  0.31611761     0.13000
H1050       H  0.62606552  0.04699733  0.30856800     0.13000
H1051       H  0.90268876  0.48820511  0.33524262     0.13000
H1052       H  0.89854255  0.04759928  0.34398830     0.13000
H1053       H  0.51021366  0.49342018  0.31476198     0.26200
H1054       H  0.51470079  0.04493799  0.31080990     0.26200
C1055       C  0.66471725  0.15471282  0.99517736     0.80300
N1056       N  0.67570214  0.16751930  0.29800702    -0.78000
C1057       C  0.70040417  0.18465268  0.29626024     0.82700
N1058       N  0.71266209  0.19168491  0.99539833    -0.78000
C1059       C  0.69965652  0.18344384  0.03038225     0.82800
N1060       N  0.67569471  0.16509617  0.03012291    -0.79700
C1061       C  0.83151471  0.21751773  0.25692447     0.42500
N1062       N  0.80416193  0.22176560  0.20546577     0.01400
C1063       C  0.78183305  0.34619575  0.08688751    -0.06500
H1064       H  0.76647196  0.36352633  0.24438769     0.06900
C1065       C  0.68267230  0.28948366  0.23807303    -0.06300
Co1066     Co  0.81380975  0.27965262  0.16238202     0.74200
N1067       N  0.78187316  0.32795156  0.20623294    -0.26000
Co1068     Co  0.74902260  0.32157457  0.16262692     0.74100
C1069       C  0.68830205  0.31809137  0.25680903     0.42600
N1070       N  0.71477231  0.22377801  0.20593237     0.01000
N1071       N  0.71684880  0.31371180  0.20609845     0.01100
N1072       N  0.82434746  0.31902749  0.08902653    -0.46800
H1073       H  0.85228565  0.26367677  0.24676901     0.06900
N1074       N  0.80674036  0.31221564  0.20558213     0.01400
N1075       N  0.71673850  0.31423772  0.11931386     0.01200
C1076       C  0.68858783  0.31856689  0.06842098     0.42800
N1077       N  0.73967943  0.20811174  0.20617778    -0.25500
C1078       C  0.83896907  0.24683230  0.08745631    -0.06400
N1079       N  0.81086384  0.20349063  0.23529113    -0.46600
N1080       N  0.70982129  0.33239731  0.08938772    -0.46800
C1081       C  0.83358509  0.21842600  0.06822291     0.42500
N1082       N  0.80633391  0.31209510  0.11893486     0.01400
N1083       N  0.73975328  0.20853445  0.11827487    -0.25500
N1084       N  0.81942736  0.24682133  0.20617533    -0.26000
N1085       N  0.71477216  0.22410296  0.11879370     0.01000
H1086       H  0.75663691  0.17458368  0.07865648     0.06900
H1087       H  0.66788003  0.27247565  0.07926840     0.07000
N1088       N  0.78142119  0.32775927  0.11859414    -0.26000
N1089       N  0.70120276  0.28886520  0.20654431    -0.25600
N1090       N  0.80458326  0.22232698  0.11865781     0.01400
C1091       C  0.81274729  0.34255851  0.25402476     0.42800
C1092       C  0.73944407  0.18996946  0.23824522    -0.06900
N1093       N  0.70132214  0.28927487  0.11902378    -0.25600
H1094       H  0.66704021  0.27230040  0.24647338     0.06900
N1095       N  0.82569138  0.32017091  0.23359930    -0.46900
H1096       H  0.75692134  0.17464036  0.24683882     0.06900
C1097       C  0.71058839  0.19558393  0.06814624     0.42600
C1098       C  0.83718069  0.24628609  0.23811221    -0.06400
Co1099     Co  0.77219673  0.21446424  0.16207461     0.73800
N1100       N  0.69699605  0.21716625  0.23626488    -0.46600
C1101       C  0.81037679  0.34043808  0.06779473     0.42900
N1102       N  0.81196321  0.20444097  0.08897978    -0.46600
Co1103     Co  0.70730007  0.25636384  0.16257634     0.73900
C1104       C  0.68311016  0.28986450  0.08754713    -0.06900
C1105       C  0.78337220  0.34738475  0.23648464    -0.06500
N1106       N  0.82014624  0.24719885  0.11863071    -0.26000
N1107       N  0.70979166  0.33180033  0.23561201    -0.46700
H1108       H  0.76448837  0.36174590  0.07851101     0.06900
C1109       C  0.73927373  0.19011143  0.08693322    -0.06900
Cl1110     Cl  0.76056675  0.26802548  0.16245500    -0.49900
C1111       C  0.71105173  0.19593021  0.25774412     0.42700
H1112       H  0.85461509  0.26412224  0.07953341     0.06900
N1113       N  0.69669991  0.21704102  0.08930800    -0.46600
C1114       C  0.60964603  0.09746610  0.36458619    -0.12200
C1115       C  0.59127673  0.09281217  0.99161826     0.04800
C1116       C  0.59793972  0.11092786  0.95842536    -0.07500
C1117       C  0.62159883  0.13118211  0.96015497    -0.08200
C1118       C  0.63903305  0.13364685  0.99478081    -0.02800
C1119       C  0.63219331  0.11868759  0.36735265     0.04000
N1120       N  0.64907495  0.11952192  0.40316351     0.66500
H1121       H  0.60552655  0.08239750  0.38939423     0.15400
H1122       H  0.62643376  0.14485688  0.93419737     0.15100
N1123       N  0.58128191  0.10826001  0.92254241     0.74200
O1124       O  0.63907866  0.13402218  0.43237127    -0.39200
O1125       O  0.66949125  0.09515019  0.06701217    -0.39200
O1126       O  0.55623572  0.12999046  0.26116672    -0.39900
O1127       O  0.58633270  0.08662194  0.89970650    -0.39900
C1128       C  0.91573756  0.10030621  0.29549292    -0.12200
C1129       C  0.93462956  0.09651590  0.00265712     0.04800
C1130       C  0.91583976  0.10362919  0.03475017    -0.07500
C1131       C  0.89666656  0.12815692  0.03175489    -0.08200
C1132       C  0.89580296  0.14601712  0.99708070    -0.02800
C1133       C  0.89434686  0.12311231  0.29474126     0.04000
N1134       N  0.87605450  0.12592367  0.26029687     0.66500
H1135       H  0.91840329  0.08607518  0.26980984     0.15400
H1136       H  0.88244960  0.13324171  0.05694082     0.15100
N1137       N  0.91657375  0.08670342  0.07095102     0.74200
O1138       O  0.88638978  0.13863736  0.22958805    -0.39200
O1139       O  0.85410126  0.10880140  0.25686484    -0.39200
O1140       O  0.93186664  0.09593196  0.09960975    -0.39900
O1141       O  0.89698298  0.06721926  0.07736582    -0.39900
C1142       C  0.62008583  0.40479130  0.29200408    -0.12200
C1143       C  0.62866879  0.38959767  0.98942942     0.04800
C1144       C  0.62310822  0.40910497  0.02161409    -0.07500
C1145       C  0.60259295  0.43238236  0.01736276    -0.08200
C1146       C  0.58775537  0.43980622  0.32558488    -0.02800
C1147       C  0.59901269  0.42776775  0.29025685     0.04000
N1148       N  0.58899631  0.43875982  0.25255326     0.66500
H1149       H  0.62803928  0.39547471  0.26427779     0.15400
H1150       H  0.59830419  0.44705514  0.04221747     0.15100
N1151       N  0.63820847  0.40608665  0.05868955     0.74200
O1152       O  0.58509464  0.44284580  0.88943906    -0.39200
O1153       O  0.56436350  0.43018511  0.23927134    -0.39200
O1154       O  0.66042996  0.42229595  0.06518199    -0.39900
O1155       O  0.61481323  0.37925144  0.42256619    -0.39900
C1156       C  0.92795057  0.42613942  0.36359883    -0.12200
C1157       C  0.93754951  0.43948309  0.32813326     0.04800
C1158       C  0.92572531  0.42172312  0.95715774    -0.07500
C1159       C  0.90200951  0.40172068  0.96016212    -0.08200
C1160       C  0.88403167  0.40030959  0.99453360    -0.02800
C1161       C  0.90430383  0.40592185  0.36397658     0.04000
N1162       N  0.87328866  0.41946532  0.06232597     0.66500
H1163       H  0.93877348  0.43165774  0.39127731     0.15400
H1164       H  0.89750125  0.38742280  0.93513209     0.15100
N1165       N  0.93363494  0.44520450  0.25564040     0.74200
O1166       O  0.91094662  0.37029375  0.41363672    -0.39200
O1167       O  0.85205303  0.43781674  0.06497180    -0.39200
O1168       O  0.95779444  0.43647649  0.24037050    -0.39900
O1169       O  0.96257495  0.40356433  0.91517161    -0.39900
C1170       C  0.86207231  0.37965484  0.32722912     0.80300
N1171       N  0.84699064  0.37330953  0.62555700    -0.78000
C1172       C  0.82254667  0.35567162  0.62601987     0.82700
N1173       N  0.81056015  0.34680064  0.66139083    -0.78000
C1174       C  0.82335460  0.35483249  0.36169380     0.82800
N1175       N  0.84873301  0.37098197  0.36180694    -0.79700
C1176       C  0.65066674  0.36719824  0.32923172     0.80300
N1177       N  0.66141612  0.35591510  0.62805365    -0.78000
C1178       C  0.67788957  0.33049406  0.62721931     0.82700
N1179       N  0.68610209  0.31708832  0.66183097    -0.78000
C1180       C  0.67712916  0.32987623  0.36426215     0.82800
N1181       N  0.66013614  0.35492410  0.36404988    -0.79700
C1182       C  0.87039237  0.16836660  0.32836835     0.80300
N1183       N  0.86383748  0.18393550  0.62703849    -0.78000
C1184       C  0.84791431  0.20974816  0.62687677     0.82700
N1185       N  0.83745788  0.21957109  0.32900143    -0.78000
C1186       C  0.84715538  0.20754889  0.36380516     0.82800
N1187       N  0.86334063  0.18189553  0.36336675    -0.79700
N1188       N  0.51269019  0.47305794  0.65789803    -0.36600
N1189       N  0.55901541  0.01422984  0.65696208    -0.57100
N1190       N  0.51701731  0.06307510  0.66097535    -0.36500
N1191       N  0.96484965  0.02012172  0.65997106    -0.57100
C1192       C  0.53714004  0.45548944  0.65617282     0.27000
C1193       C  0.98790944  0.45520847  0.65883904     0.27000
C1194       C  0.54262095  0.07821164  0.66608266     0.27000
C1195       C  0.98742023  0.08303483  0.65809199     0.27000
C1196       C  0.57694347  0.49462174  0.66167458     0.35700
C1197       C  0.57847811  0.03685848  0.65257739     0.35700
C1198       C  0.95027355  0.49520525  0.64732988     0.35700
C1199       C  0.94784819  0.04441550  0.66702842     0.35700
C1200       C  0.52845714  0.42627028  0.64986223    -0.21800
C1201       C  0.99580078  0.42644319  0.67013548    -0.21800
C1202       C  0.53608950  0.10686814  0.67863935    -0.21800
C1203       C  0.99644829  0.11208327  0.65050745    -0.21800
C1204       C  0.60400809  0.99526416  0.64302519    -0.22900
C1205       C  0.60654158  0.02572510  0.64400644    -0.22900
C1206       C  0.91843913  0.00541170  0.67386297    -0.22900
C1207       C  0.91900542  0.03589102  0.67584834    -0.22900
C1208       C  0.56711001  0.46472796  0.66039820    -0.18200
C1209       C  0.95849216  0.46494220  0.65153165    -0.18200
C1210       C  0.95747005  0.07430545  0.66402407    -0.18200
C1211       C  0.57168670  0.06728974  0.65859725    -0.18200
H1212       H  0.54261143  0.40681136  0.64718935     0.14700
H1213       H  0.98116947  0.40775631  0.67548658     0.14700
H1214       H  0.55160904  0.12452046  0.68490898     0.14700
H1215       H  0.98259750  0.13175499  0.64752050     0.14700
H1216       H  0.62587666  0.48878351  0.66543937     0.13000
H1217       H  0.62681114  0.03820066  0.63955144     0.13000
H1218       H  0.90409122  0.49213663  0.62528397     0.13000
H1219       H  0.90028417  0.05012969  0.68301182     0.13000
H1220       H  0.51264305  0.49550693  0.66402238     0.26200
H1221       H  0.51493970  0.04187463  0.64963989     0.26200
C1222       C  0.66437012  0.15829490  0.33364669     0.80300
N1223       N  0.68039370  0.16313896  0.62763273    -0.78000
C1224       C  0.70349160  0.18253224  0.62758370     0.82700
N1225       N  0.71372359  0.19319182  0.33042379    -0.78000
C1226       C  0.70220198  0.18471201  0.36620526     0.82800
N1227       N  0.67748106  0.16749366  0.36771717    -0.79700
C1228       C  0.83588822  0.22124790  0.58953213     0.42500
N1229       N  0.80773061  0.22513857  0.53884370     0.01400
C1230       C  0.78283064  0.34813729  0.41812464    -0.06500
H1231       H  0.76493031  0.36371694  0.57815706     0.06900
C1232       C  0.68491164  0.29046281  0.57137038    -0.06300
Co1233     Co  0.81603246  0.28273676  0.49463263     0.74200
N1234       N  0.78256350  0.33030314  0.53823184    -0.26000
Co1235     Co  0.75018498  0.32345619  0.49470638     0.74100
C1236       C  0.68953967  0.31950734  0.58932800     0.42600
N1237       N  0.71830053  0.22522951  0.54009921     0.01000
N1238       N  0.71809870  0.31546321  0.53851054     0.01100
N1239       N  0.82582850  0.32186474  0.42106690    -0.46800
H1240       H  0.85595386  0.26771716  0.57867731     0.06900
N1241       N  0.80780775  0.31516684  0.53774296     0.01400
N1242       N  0.71808951  0.31515798  0.45198559     0.01200
C1243       C  0.68945143  0.31882046  0.40169848     0.42800
N1244       N  0.74349138  0.21003296  0.54014697    -0.25500
C1245       C  0.84136540  0.24882468  0.41932902    -0.06400
N1246       N  0.81502688  0.20704505  0.56854891    -0.46600
N1247       N  0.71051348  0.33314321  0.42224764    -0.46800
C1248       C  0.83637227  0.21951256  0.40179775     0.42500
N1249       N  0.80779785  0.31478092  0.45089057     0.01400
N1250       N  0.74338576  0.21028166  0.45254469    -0.25500
N1251       N  0.82270509  0.25036864  0.53895114    -0.26000
N1252       N  0.71814467  0.22539541  0.45342426     0.01000
H1253       H  0.76053860  0.17672331  0.41247487     0.06900
H1254       H  0.66943169  0.27247260  0.41330523     0.07000
N1255       N  0.78258442  0.32997037  0.45023913    -0.26000
N1256       N  0.70330101  0.29012689  0.53973550    -0.25600
N1257       N  0.80784485  0.22468066  0.45252721     0.01400
C1258       C  0.81134735  0.34345845  0.58858486     0.42800
C1259       C  0.74320470  0.19090338  0.57114908    -0.06900
N1260       N  0.70310802  0.28993115  0.45226131    -0.25600
H1261       H  0.66993279  0.27282772  0.58025476     0.06900
N1262       N  0.82566127  0.32242403  0.56729101    -0.46900
H1263       H  0.76070981  0.17535606  0.57892798     0.06900
C1264       C  0.71406563  0.19712007  0.40290996     0.42600
C1265       C  0.84091116  0.25013453  0.57049920    -0.06400
Co1266     Co  0.77578060  0.21692993  0.49601854     0.73800
N1267       N  0.70020512  0.21724628  0.56952984    -0.46600
C1268       C  0.81164782  0.34278437  0.39925639     0.42900
N1269       N  0.81520389  0.20604561  0.42377777    -0.46600
Co1270     Co  0.71005309  0.25752857  0.49645907     0.73900
C1271       C  0.68457680  0.29007144  0.42107831    -0.06900
C1272       C  0.78262628  0.34861712  0.56972664    -0.06500
N1273       N  0.82294695  0.24982327  0.45108020    -0.26000
N1274       N  0.71049847  0.33369366  0.56765936    -0.46700
H1275       H  0.76526177  0.36332043  0.40939037     0.06900
C1276       C  0.74301214  0.19195574  0.42110242    -0.06900
Cl1277     Cl  0.76301961  0.27018043  0.49545338    -0.49900
C1278       C  0.71436569  0.19553569  0.59009545     0.42700
H1279       H  0.85659361  0.26614343  0.41008538     0.06900
N1280       N  0.69995411  0.21812339  0.42434320    -0.46600
C1281       C  0.61298459  0.09223962  0.69409504    -0.12200
C1282       C  0.59257042  0.09533077  0.33015090     0.04800
C1283       C  0.59730633  0.11541157  0.29847246    -0.07500
C1284       C  0.62009129  0.13638974  0.30076437    -0.08200
C1285       C  0.63831618  0.13796686  0.33464183    -0.02800
C1286       C  0.63666272  0.11232395  0.69582848     0.04000
N1287       N  0.65353473  0.11316982  0.73162533     0.66500
H1288       H  0.60750404  0.07883925  0.72010188     0.15400
H1289       H  0.62378584  0.15120086  0.27558548     0.15100
N1290       N  0.57944307  0.11419723  0.26350583     0.74200
O1291       O  0.64322280  0.12693521  0.76126517    -0.39200
O1292       O  0.66896227  0.10007510  0.40898010    -0.39200
O1293       O  0.56394314  0.11406327  0.58353300    -0.39900
O1294       O  0.58383549  0.09376936  0.23857011    -0.39900
C1295       C  0.91502386  0.10124103  0.63248803    -0.12200
C1296       C  0.93363262  0.09563746  0.32890147     0.04800
C1297       C  0.92970401  0.11379371  0.36239792    -0.07500
C1298       C  0.90858856  0.13673274  0.36171585    -0.08200
C1299       C  0.89084599  0.14210278  0.32805158    -0.02800
C1300       C  0.89353707  0.12392104  0.63176045     0.04000
N1301       N  0.87160878  0.12369478  0.60121370     0.66500
H1302       H  0.91618972  0.08556485  0.60817549     0.15400
H1303       H  0.90646454  0.15066956  0.38773506     0.15100
N1304       N  0.94678696  0.10899680  0.39757148     0.74200
O1305       O  0.87850795  0.13202720  0.56641992    -0.39200
O1306       O  0.84840338  0.10849171  0.60655850    -0.39200
O1307       O  0.96718495  0.12701280  0.40592034    -0.39900
O1308       O  0.93707897  0.09155908  0.42424206    -0.39900
C1309       C  0.62347006  0.40721653  0.62704308    -0.12200
C1310       C  0.63028138  0.39352771  0.32890350     0.04800
C1311       C  0.61965678  0.40707510  0.36437284    -0.07500
C1312       C  0.59850146  0.42988591  0.36223807    -0.08200
C1313       C  0.59022316  0.44117822  0.66117440    -0.02800
C1314       C  0.60285009  0.43061946  0.62572668     0.04000
N1315       N  0.59558883  0.44429852  0.58841010     0.66500
H1316       H  0.63213378  0.39883740  0.59914843     0.15400
H1317       H  0.59009305  0.43973110  0.38944166     0.15100
N1318       N  0.62971690  0.39811438  0.40293206     0.74200
O1319       O  0.60113367  0.46149664  0.23737478    -0.39200
O1320       O  0.57117044  0.43856167  0.57203762    -0.39200
O1321       O  0.64763354  0.41463114  0.42106200    -0.39900
O1322       O  0.61778000  0.38292814  0.76022433    -0.39900
C1323       C  0.91867830  0.43918692  0.68922929    -0.12200
C1324       C  0.93425319  0.44271478  0.65346643     0.04800
C1325       C  0.92368996  0.43208554  0.29226430    -0.07500
C1326       C  0.89965230  0.41227221  0.29236853    -0.08200
C1327       C  0.88917410  0.39910192  0.32805976    -0.02800
C1328       C  0.89485359  0.41943892  0.69247014     0.04000
N1329       N  0.89633199  0.39256657  0.40127400     0.66500
H1330       H  0.92499798  0.45211319  0.71489682     0.15400
H1331       H  0.88892707  0.40757987  0.26437784     0.15100
N1332       N  0.94271605  0.42825385  0.58393239     0.74200
O1333       O  0.89082216  0.40086080  0.75685506    -0.39200
O1334       O  0.88105605  0.40740938  0.42576576    -0.39200
O1335       O  0.96473279  0.41130428  0.57808318    -0.39900
O1336       O  0.92236331  0.46957094  0.24407602    -0.39900
C1337       C  0.85936770  0.38266156  0.66012805     0.80300
N1338       N  0.84601761  0.37069954  0.96024156    -0.78000
C1339       C  0.82163458  0.35303475  0.96023617     0.82700
N1340       N  0.80937163  0.34403800  0.99530481    -0.78000
C1341       C  0.82306934  0.35536121  0.69615146     0.82800
N1342       N  0.84750744  0.37305596  0.69536121    -0.79700
C1343       C  0.65261799  0.36794862  0.66328654     0.80300
N1344       N  0.65963172  0.35076229  0.95839111    -0.78000
C1345       C  0.67775469  0.32659464  0.96007789     0.82700
N1346       N  0.68664830  0.31568545  0.99590940    -0.78000
C1347       C  0.67798651  0.32921360  0.69712811     0.82800
N1348       N  0.66148842  0.35462290  0.69774320    -0.79700
C1349       C  0.87246258  0.17127017  0.66202378     0.80300
N1350       N  0.86627447  0.18441807  0.96114016    -0.78000
C1351       C  0.84764561  0.20832356  0.96077497     0.82700
N1352       N  0.84008236  0.22270078  0.66178801    -0.78000
C1353       C  0.84815041  0.20977285  0.69677675     0.82800
N1354       N  0.86409084  0.18411740  0.69675759    -0.79700
N1355       N  0.51076278  0.47008954  0.97861669    -0.36600
N1356       N  0.55683127  0.01667221  0.99174006    -0.57100
N1357       N  0.51287250  0.06439059  0.98767126    -0.36500
N1358       N  0.96278634  0.01756645  0.00453990    -0.57100
C1359       C  0.53469724  0.45253499  0.98554302     0.27000
C1360       C  0.98555226  0.45460708  0.99159111     0.27000
C1361       C  0.53755572  0.08019541  0.99575693     0.27000
C1362       C  0.98645570  0.07899864  0.01015162     0.27000
C1363       C  0.57445890  0.49010051  0.97398881     0.35700
C1364       C  0.57541997  0.03998066  0.98684441     0.35700
C1365       C  0.94687646  0.49404606  0.98548629     0.35700
C1366       C  0.94621441  0.04237631  0.99876901     0.35700
C1367       C  0.52543535  0.42461790  0.99850285    -0.21800
C1368       C  0.99433325  0.42594325  0.00194416    -0.21800
C1369       C  0.52945700  0.10820922  0.00927036    -0.21800
C1370       C  0.99644984  0.10582137  0.02506786    -0.21800
C1371       C  0.60308561  0.99923293  0.98209996    -0.22900
C1372       C  0.60421428  0.02978402  0.98090042    -0.22900
C1373       C  0.91658482  0.00427808  0.98760297    -0.22900
C1374       C  0.91749696  0.03483732  0.98841367    -0.22900
C1375       C  0.56465217  0.46057345  0.97927834    -0.18200
C1376       C  0.95568588  0.46379247  0.98675469    -0.18200
C1377       C  0.95630493  0.07165960  0.00482923    -0.18200
C1378       C  0.56719176  0.07032019  0.99038238    -0.18200
H1379       H  0.53919547  0.40559610  0.00622290     0.14700
H1380       H  0.98024705  0.40695930  0.00807204     0.14700
H1381       H  0.54404601  0.12607365  0.01792119     0.14700
H1382       H  0.98309389  0.12408928  0.03621505     0.14700
H1383       H  0.62194920  0.48359118  0.95821819     0.13000
H1384       H  0.62406356  0.04296895  0.97675359     0.13000
H1385       H  0.89964136  0.49086192  0.96785519     0.13000
H1386       H  0.89908253  0.04978171  0.98240304     0.13000
H1387       H  0.51089419  0.49148018  0.96663078     0.26200
H1388       H  0.51232144  0.04347777  0.97492187     0.26200
C1389       C  0.66921442  0.15206880  0.66251419     0.80300
N1390       N  0.67746894  0.16387874  0.96031458    -0.78000
C1391       C  0.70156296  0.18202130  0.96031239     0.82700
N1392       N  0.71532941  0.19134346  0.66256991    -0.78000
C1393       C  0.70400747  0.18108656  0.69758290     0.82800
N1394       N  0.68086899  0.16169936  0.69745911    -0.79700
C1395       C  0.83573965  0.21939226  0.92304413     0.42500
N1396       N  0.80760092  0.22320125  0.87221020     0.01400
C1397       C  0.78299470  0.34757017  0.75285717    -0.06500
H1398       H  0.76422101  0.36120566  0.91223585     0.06900
C1399       C  0.68520579  0.28669516  0.90395087    -0.06300
Co1400     Co  0.81593803  0.28124067  0.82846077     0.74200
N1401       N  0.78211352  0.32801950  0.87218656    -0.26000
Co1402     Co  0.75013228  0.32119028  0.82816202     0.74100
C1403       C  0.69064753  0.31506161  0.92331054     0.42600
N1404       N  0.71789372  0.22245968  0.87145868     0.01000
N1405       N  0.71814672  0.31226224  0.87145064     0.01100
N1406       N  0.82623050  0.32174449  0.75546482    -0.46800
H1407       H  0.85567135  0.26586662  0.91221141     0.06900
N1408       N  0.80743547  0.31306981  0.87174512     0.01400
N1409       N  0.71845096  0.31304341  0.78483735     0.01200
C1410       C  0.69026431  0.31732149  0.73416286     0.42800
N1411       N  0.74320910  0.20750237  0.87259408    -0.25500
C1412       C  0.84107442  0.24934238  0.75307014    -0.06400
N1413       N  0.81488717  0.20513921  0.90201780    -0.46600
N1414       N  0.71099368  0.33144084  0.75551318    -0.46800
C1415       C  0.83613503  0.22072908  0.73425106     0.42500
N1416       N  0.80804199  0.31384323  0.78486240     0.01400
N1417       N  0.74392468  0.20765740  0.78471601    -0.25500
N1418       N  0.82250797  0.24848765  0.87241345    -0.26000
N1419       N  0.71868352  0.22278467  0.78474786     0.01000
H1420       H  0.76129882  0.17326914  0.74610937     0.06900
H1421       H  0.67051160  0.27061903  0.74409575     0.07000
N1422       N  0.78268535  0.32874960  0.78428321    -0.26000
N1423       N  0.70319594  0.28700846  0.87185850    -0.25600
N1424       N  0.80818211  0.22366726  0.78562041     0.01400
C1425       C  0.81068920  0.34108934  0.92268352     0.42800
C1426       C  0.74257143  0.18900182  0.90438331    -0.06900
N1427       N  0.70368609  0.28768980  0.78413019    -0.25600
H1428       H  0.67030626  0.26892642  0.91256972     0.06900
N1429       N  0.82519487  0.32025004  0.90137782    -0.46900
H1430       H  0.76013157  0.17388681  0.91335656     0.06900
C1431       C  0.71481606  0.19330052  0.73521981     0.42600
C1432       C  0.84070698  0.24823955  0.90395881    -0.06400
Co1433     Co  0.77596666  0.21480593  0.82881529     0.73800
N1434       N  0.69945768  0.21496894  0.90068929    -0.46600
C1435       C  0.81204414  0.34308731  0.73420754     0.42900
N1436       N  0.81554684  0.20601022  0.75582698    -0.46600
Co1437     Co  0.71017339  0.25487925  0.82794477     0.73900
C1438       C  0.68548641  0.28817726  0.75257481    -0.06900
C1439       C  0.78198253  0.34618668  0.90380284    -0.06500
N1440       N  0.82292505  0.24905801  0.78493725    -0.26000
N1441       N  0.71114162  0.32975906  0.90158038    -0.46700
H1442       H  0.76530714  0.36271570  0.74444706     0.06900
C1443       C  0.74371744  0.18868851  0.75392802    -0.06900
Cl1444     Cl  0.76306362  0.26800132  0.82825232    -0.49900
C1445       C  0.71336019  0.19386412  0.92253294     0.42700
H1446       H  0.85587455  0.26718810  0.74441438     0.06900
N1447       N  0.70069003  0.21493289  0.75563689    -0.46600
C1448       C  0.60822276  0.09524581  0.02609175    -0.12200
C1449       C  0.59665832  0.08888055  0.65921117     0.04800
C1450       C  0.60426641  0.10577188  0.62527730    -0.07500
C1451       C  0.62771400  0.12625191  0.62689315    -0.08200
C1452       C  0.64422058  0.13008516  0.66209661    -0.02800
C1453       C  0.63196547  0.11516852  0.02795206     0.04000
N1454       N  0.64962647  0.11488391  0.06307371     0.66500
H1455       H  0.60334791  0.08102470  0.05153840     0.15400
H1456       H  0.63299265  0.13913273  0.60038113     0.15100
N1457       N  0.58880953  0.10157827  0.58873867     0.74200
O1458       O  0.64039086  0.12852966  0.09342396    -0.39200
O1459       O  0.67413955  0.09437278  0.73673016    -0.39200
O1460       O  0.55790559  0.12352259  0.91803694    -0.39900
O1461       O  0.59678505  0.08081273  0.56590331    -0.39900
C1462       C  0.93373538  0.11384636  0.96789290    -0.12200
C1463       C  0.93440896  0.09809420  0.66477529     0.04800
C1464       C  0.93175823  0.11757552  0.69713519    -0.07500
C1465       C  0.91137635  0.14108932  0.69556437    -0.08200
C1466       C  0.89237848  0.14490073  0.66285462    -0.02800
C1467       C  0.91466584  0.13844184  0.96472505     0.04000
N1468       N  0.91598528  0.15607142  0.92914091     0.66500
H1469       H  0.94837974  0.10848649  0.94321342     0.15400
H1470       H  0.91044648  0.15640731  0.72028057     0.15100
N1471       N  0.94877209  0.11303129  0.73242909     0.74200
O1472       O  0.93620623  0.17527462  0.92546377    -0.39200
O1473       O  0.90315913  0.14686119  0.89835730    -0.39200
O1474       O  0.96938727  0.13087550  0.74047020    -0.39900
O1475       O  0.93865371  0.09619802  0.75952187    -0.39900
C1476       C  0.61325682  0.39446201  0.95345269    -0.12200
C1477       C  0.63276285  0.39473222  0.66364799     0.04800
C1478       C  0.62184992  0.40762379  0.69937785    -0.07500
C1479       C  0.60022612  0.43011313  0.69770891    -0.08200
C1480       C  0.58733003  0.43673268  0.98170801    -0.02800
C1481       C  0.59272702  0.41778971  0.94950769     0.04000
N1482       N  0.57733311  0.42207913  0.91279230     0.66500
H1483       H  0.61683899  0.37994237  0.92828500     0.15400
H1484       H  0.59151528  0.43937086  0.72510985     0.15100
N1485       N  0.63319458  0.39931037  0.73753784     0.74200
O1486       O  0.61066010  0.46618095  0.57608105    -0.39200
O1487       O  0.55286311  0.40919698  0.90746971    -0.39200
O1488       O  0.65386627  0.41449860  0.75220285    -0.39900
O1489       O  0.62494258  0.39397400  0.08775667    -0.39900
C1490       C  0.91463267  0.43900404  0.02370321    -0.12200
C1491       C  0.93187609  0.44089955  0.98896269     0.04800
C1492       C  0.92631964  0.42572992  0.62036489    -0.07500
C1493       C  0.90214141  0.40614062  0.62313400    -0.08200
C1494       C  0.88579082  0.40281846  0.65895936    -0.02800
C1495       C  0.89091711  0.41907469  0.02684415     0.04000
N1496       N  0.87988907  0.41730581  0.72995324     0.66500
H1497       H  0.91926923  0.45365556  0.04834514     0.15400
H1498       H  0.89618000  0.39353246  0.59707015     0.15100
N1499       N  0.94265865  0.42293318  0.92111629     0.74200
O1500       O  0.88324102  0.40730686  0.09356845    -0.39200
O1501       O  0.86163959  0.43747622  0.73952273    -0.39200
O1502       O  0.93275853  0.43779408  0.89196907    -0.39900
O1503       O  0.93914759  0.45090355  0.56188794    -0.39900
C1504       C  0.85474327  0.88074882  0.00064198     0.80300
N1505       N  0.84589264  0.86798514  0.29113133    -0.78000
C1506       C  0.82155702  0.85016998  0.29233693     0.82700
N1507       N  0.81012399  0.84128911  0.32791561    -0.78000
C1508       C  0.81920414  0.85067941  0.03362160     0.82800
N1509       N  0.84236240  0.86990642  0.03483360    -0.79700
C1510       C  0.64716665  0.86347399  0.99833379     0.80300
N1511       N  0.65694805  0.85067432  0.29740343    -0.78000
C1512       C  0.67472749  0.82614644  0.29806486     0.82700
N1513       N  0.68423297  0.81488555  0.33338841    -0.78000
C1514       C  0.67385733  0.82614503  0.03350402     0.82800
N1515       N  0.65572850  0.85047021  0.03323005    -0.79700
C1516       C  0.87189101  0.66862480  0.99781393     0.80300
N1517       N  0.86283959  0.67863910  0.29408270    -0.78000
C1518       C  0.84433184  0.70260966  0.29513413     0.82700
N1519       N  0.83468895  0.71671252  0.99831617    -0.78000
C1520       C  0.84273720  0.70350149  0.03309557     0.82800
N1521       N  0.86113812  0.67948274  0.03276662    -0.79700
N1522       N  0.51287669  0.97413709  0.32160038    -0.36600
N1523       N  0.55651816  0.51693867  0.32923644    -0.57100
N1524       N  0.51086402  0.56233580  0.33785452    -0.36500
N1525       N  0.96966833  0.51678007  0.32955896    -0.57100
C1526       C  0.53683202  0.95646790  0.32790216     0.27000
C1527       C  0.98414466  0.95400258  0.31812912     0.27000
C1528       C  0.53509603  0.58008893  0.33882810     0.27000
C1529       C  0.99160904  0.57991299  0.32412620     0.27000
C1530       C  0.57681402  0.99436122  0.31856262     0.35700
C1531       C  0.57438197  0.54095463  0.32869308     0.35700
C1532       C  0.94550068  0.99355297  0.32709981     0.35700
C1533       C  0.95198727  0.54112027  0.33199097     0.35700
C1534       C  0.52748783  0.92819693  0.33924181    -0.21800
C1535       C  0.99297982  0.92548808  0.30749951    -0.21800
C1536       C  0.52616864  0.60937317  0.34435416    -0.21800
C1537       C  0.00042398  0.60899433  0.31625783    -0.21800
C1538       C  0.60353664  0.50172661  0.32013687    -0.22900
C1539       C  0.60366299  0.53212234  0.32299196    -0.22900
C1540       C  0.92228413  0.50203038  0.33371904    -0.22900
C1541       C  0.92251649  0.53255347  0.33473483    -0.22900
C1542       C  0.56689632  0.96468233  0.32246188    -0.18200
C1543       C  0.95427825  0.96354221  0.32167183    -0.18200
C1544       C  0.96163842  0.57104781  0.32963409    -0.18200
C1545       C  0.56501980  0.57074990  0.33420488    -0.18200
H1546       H  0.54114987  0.90889516  0.34591979     0.14700
H1547       H  0.97891404  0.90704238  0.29944791     0.14700
H1548       H  0.54013127  0.62885859  0.34621893     0.14700
H1549       H  0.98645064  0.62856256  0.31313316     0.14700
H1550       H  0.62480193  0.98819714  0.30556600     0.13000
H1551       H  0.62317741  0.54605915  0.32137011     0.13000
H1552       H  0.89733792  0.98899171  0.33989481     0.13000
H1553       H  0.90310543  0.54680374  0.33668898     0.13000
H1554       H  0.51321880  0.99575865  0.31064654     0.26200
H1555       H  0.51069390  0.54025313  0.33380752     0.26200
C1556       C  0.66432726  0.65261185  0.99580198     0.80300
N1557       N  0.67594330  0.66148367  0.30198313    -0.78000
C1558       C  0.69990110  0.67964103  0.30045981     0.82700
N1559       N  0.71091798  0.69110407  0.99900621    -0.78000
C1560       C  0.69797583  0.68113103  0.03323426     0.82800
N1561       N  0.67468513  0.66205024  0.03151553    -0.79700
C1562       C  0.83116412  0.71398224  0.25834095     0.42500
N1563       N  0.80243568  0.71804085  0.20815584     0.01400
C1564       C  0.77892072  0.84283391  0.08952242    -0.06500
H1565       H  0.76339743  0.85895995  0.24634267     0.06900
C1566       C  0.68081449  0.78553509  0.24237335    -0.06300
Co1567     Co  0.81111430  0.77569008  0.16405144     0.74200
N1568       N  0.77904548  0.82374219  0.20783885    -0.26000
Co1569     Co  0.74611297  0.81740871  0.16499468     0.74100
C1570       C  0.68661423  0.81426616  0.26072877     0.42600
N1571       N  0.71297655  0.71974726  0.21029018     0.01000
N1572       N  0.71436105  0.80976564  0.20918951     0.01100
N1573       N  0.82139473  0.81559812  0.09108848    -0.46800
H1574       H  0.85169310  0.76007807  0.24675910     0.06900
N1575       N  0.80394922  0.80808074  0.20697630     0.01400
N1576       N  0.71362230  0.80994155  0.12231754     0.01200
C1577       C  0.68538945  0.81453835  0.07146596     0.42800
N1578       N  0.73798470  0.70421718  0.21005144    -0.25500
C1579       C  0.83567260  0.74281912  0.08924563    -0.06400
N1580       N  0.80991490  0.69987921  0.23780098    -0.46600
N1581       N  0.70671122  0.82813278  0.09245774    -0.46800
C1582       C  0.83042859  0.71419839  0.07067147     0.42500
N1583       N  0.80319003  0.80803989  0.12054402     0.01400
N1584       N  0.73719001  0.70439092  0.12233092    -0.25500
N1585       N  0.81767456  0.74311118  0.20800223    -0.26000
N1586       N  0.71216529  0.71989499  0.12303937     0.01000
H1587       H  0.75437852  0.67114877  0.08191710     0.06900
H1588       H  0.66433774  0.76852089  0.08268232     0.07000
N1589       N  0.77828884  0.82373173  0.12054957    -0.26000
N1590       N  0.69885720  0.78485226  0.21031822    -0.25600
N1591       N  0.80189200  0.71815981  0.12142254     0.01400
C1592       C  0.80959870  0.83788236  0.25561591     0.42800
C1593       C  0.73825840  0.68596983  0.24198470    -0.06900
N1594       N  0.69808789  0.78504685  0.12233963    -0.25600
H1595       H  0.66544102  0.76828819  0.25140454     0.06900
N1596       N  0.82281704  0.81580765  0.23507517    -0.46900
H1597       H  0.75590503  0.67066879  0.25003523     0.06900
C1598       C  0.70825313  0.69203005  0.07184255     0.42600
C1599       C  0.83630342  0.74268174  0.23903913    -0.06400
Co1600     Co  0.76998693  0.71046301  0.16545887     0.73800
N1601       N  0.69560878  0.71289183  0.24100044    -0.46600
C1602       C  0.80759658  0.83746702  0.07047222     0.42900
N1603       N  0.80916984  0.70008912  0.09192613    -0.46600
Co1604     Co  0.70472741  0.75220800  0.16652860     0.73900
C1605       C  0.67972254  0.78580188  0.09085576    -0.06900
C1606       C  0.78037386  0.84296749  0.23820437    -0.06500
N1607       N  0.81719207  0.74318326  0.12069928    -0.26000
N1608       N  0.70767358  0.82797428  0.23873958    -0.46700
H1609       H  0.76177345  0.85879885  0.08181921     0.06900
C1610       C  0.73684070  0.68632762  0.09066203    -0.06900
Cl1611     Cl  0.75797069  0.76394039  0.16525648    -0.49900
C1612       C  0.71010333  0.69167385  0.26209368     0.42700
H1613       H  0.85105148  0.76021912  0.08080403     0.06900
N1614       N  0.69425884  0.71324191  0.09324908    -0.46600
C1615       C  0.60451970  0.59685164  0.37100317    -0.12200
C1616       C  0.59191402  0.59014729  0.98751776     0.04800
C1617       C  0.59931907  0.60862284  0.95502817    -0.07500
C1618       C  0.62269172  0.62899079  0.95831683    -0.08200
C1619       C  0.63931049  0.63096940  0.99367903    -0.02800
C1620       C  0.62937691  0.61536818  0.37249390     0.04000
N1621       N  0.64607366  0.61560687  0.40847431     0.66500
H1622       H  0.59826401  0.58395046  0.39715244     0.15400
H1623       H  0.62791644  0.64316229  0.93297658     0.15100
N1624       N  0.58403932  0.60588858  0.91808881     0.74200
O1625       O  0.63656522  0.63073504  0.43738249    -0.39200
O1626       O  0.67024523  0.59103297  0.06318836    -0.39200
O1627       O  0.55988862  0.62215860  0.25675902    -0.39900
O1628       O  0.59311918  0.58714586  0.89296640    -0.39900
C1629       C  0.92857549  0.60626113  0.29299892    -0.12200
C1630       C  0.93356307  0.59498743  0.00276891     0.04800
C1631       C  0.91621266  0.60250520  0.03608586    -0.07500
C1632       C  0.89615416  0.62629601  0.03357439    -0.08200
C1633       C  0.89274982  0.64281491  0.99803711    -0.02800
C1634       C  0.90740498  0.62924718  0.29141626     0.04000
N1635       N  0.89834599  0.63974251  0.25305967     0.66500
H1636       H  0.93760218  0.59743625  0.26551449     0.15400
H1637       H  0.88317073  0.63175475  0.05977950     0.15100
N1638       N  0.91884772  0.58634990  0.07272701     0.74200
O1639       O  0.91351278  0.65959796  0.23570293    -0.39200
O1640       O  0.88122689  0.62383540  0.23271815    -0.39200
O1641       O  0.93313840  0.59763520  0.10097772    -0.39900
O1642       O  0.90129250  0.56512756  0.07991882    -0.39900
C1643       C  0.61747315  0.90080791  0.29279352    -0.12200
C1644       C  0.62617582  0.88957598  0.99787872     0.04800
C1645       C  0.61708867  0.90459897  0.03304734    -0.07500
C1646       C  0.59663910  0.92821377  0.03088029    -0.08200
C1647       C  0.58942766  0.94055869  0.32412502    -0.02800
C1648       C  0.59814207  0.92530714  0.28971969     0.04000
N1649       N  0.58669910  0.93403188  0.25172376     0.66500
H1650       H  0.62381326  0.88944934  0.26572396     0.15400
H1651       H  0.58975998  0.93935373  0.05792415     0.15100
N1652       N  0.62873913  0.89690626  0.07124507     0.74200
O1653       O  0.59750943  0.95402755  0.90314270    -0.39200
O1654       O  0.56140859  0.92509155  0.24133857    -0.39200
O1655       O  0.64786581  0.91364173  0.08661099    -0.39900
O1656       O  0.60779509  0.87982430  0.42267311    -0.39900
C1657       C  0.92598770  0.92330553  0.35571232    -0.12200
C1658       C  0.93077887  0.94047472  0.32140949     0.04800
C1659       C  0.92210615  0.92584599  0.96766281    -0.07500
C1660       C  0.89805043  0.90612284  0.96770932    -0.08200
C1661       C  0.88020677  0.90198798  0.00195774    -0.02800
C1662       C  0.90337027  0.90208135  0.35736997     0.04000
N1663       N  0.86808059  0.91842692  0.07071666     0.66500
H1664       H  0.94002616  0.92638395  0.38142688     0.15400
H1665       H  0.89317832  0.89428488  0.94059706     0.15100
N1666       N  0.91883655  0.95193456  0.25158226     0.74200
O1667       O  0.91591101  0.86057709  0.39550400    -0.39200
O1668       O  0.84973137  0.93950327  0.07525610    -0.39200
O1669       O  0.93934568  0.94316663  0.22869787    -0.39900
O1670       O  0.93115581  0.95330104  0.90988781    -0.39900
C1671       C  0.85875219  0.87724903  0.32544439     0.80300
N1672       N  0.84828414  0.87010901  0.62785001    -0.78000
C1673       C  0.82473209  0.85127230  0.62756530     0.82700
N1674       N  0.81240891  0.84205926  0.66258335    -0.78000
C1675       C  0.82302440  0.85003217  0.36219572     0.82800
N1676       N  0.84731218  0.86777566  0.36088088    -0.79700
C1677       C  0.64804555  0.86390920  0.33180851     0.80300
N1678       N  0.65840813  0.85070381  0.62821689    -0.78000
C1679       C  0.67864872  0.82813434  0.62879776     0.82700
N1680       N  0.68832307  0.81699218  0.66413382    -0.78000
C1681       C  0.67611397  0.82817734  0.36793206     0.82800
N1682       N  0.65824386  0.85273472  0.36706199    -0.79700
C1683       C  0.87424700  0.66697068  0.32822481     0.80300
N1684       N  0.86891848  0.68559731  0.62944237    -0.78000
C1685       C  0.84922826  0.70854273  0.63002174     0.82700
N1686       N  0.83681609  0.71499199  0.33054456    -0.78000
C1687       C  0.84750865  0.70323218  0.36498080     0.82800
N1688       N  0.86598061  0.67917646  0.36370028    -0.79700
N1689       N  0.50943287  0.97192190  0.65295799    -0.36600
N1690       N  0.55938305  0.51901538  0.65943568    -0.57100
N1691       N  0.51391357  0.56500941  0.65560511    -0.36500
N1692       N  0.96710474  0.51830175  0.65888804    -0.57100
C1693       C  0.53239321  0.95329421  0.66074474     0.27000
C1694       C  0.98562418  0.95598843  0.65564119     0.27000
C1695       C  0.53804891  0.58240056  0.66054208     0.27000
C1696       C  0.98842098  0.57896011  0.67677426     0.27000
C1697       C  0.57445098  0.98881849  0.65085167     0.35700
C1698       C  0.57750312  0.54290109  0.65968419     0.35700
C1699       C  0.94698810  0.99620345  0.66401134     0.35700
C1700       C  0.95038841  0.54314042  0.65401099     0.35700
C1701       C  0.52159207  0.92584202  0.67331633    -0.21800
C1702       C  0.99431639  0.92629659  0.65731775    -0.21800
C1703       C  0.52899221  0.61141399  0.66794789    -0.21800
C1704       C  0.99662617  0.60505590  0.69550237    -0.21800
C1705       C  0.60649783  0.50309559  0.66360580    -0.22900
C1706       C  0.60685454  0.53363183  0.66206813    -0.22900
C1707       C  0.92257940  0.50536445  0.63530456    -0.22900
C1708       C  0.92268527  0.53582261  0.63944082    -0.22900
C1709       C  0.56281329  0.95981707  0.65530770    -0.18200
C1710       C  0.95575468  0.96606025  0.65928562    -0.18200
C1711       C  0.95915876  0.57192764  0.66552412    -0.18200
C1712       C  0.56808299  0.57302152  0.65925340    -0.18200
H1713       H  0.53428210  0.90619234  0.68149970     0.14700
H1714       H  0.98025777  0.90695224  0.66071348     0.14700
H1715       H  0.54286537  0.63057899  0.67322699     0.14700
H1716       H  0.98224394  0.62289207  0.70555948     0.14700
H1717       H  0.62195924  0.97963364  0.63771493     0.13000
H1718       H  0.62649246  0.54739880  0.66300609     0.13000
H1719       H  0.89920387  0.99160164  0.67944156     0.13000
H1720       H  0.90430166  0.55077052  0.63327863     0.13000
H1721       H  0.51089647  0.99321304  0.64086727     0.26200
H1722       H  0.51388112  0.54277391  0.64812377     0.26200
C1723       C  0.66486040  0.65162388  0.33748096     0.80300
N1724       N  0.67749923  0.66665261  0.63090382    -0.78000
C1725       C  0.70286781  0.68284333  0.63084600     0.82700
N1726       N  0.71282869  0.68848121  0.33473413    -0.78000
C1727       C  0.70170954  0.67929846  0.37043007     0.82800
N1728       N  0.67761160  0.66112904  0.37173355    -0.79700
C1729       C  0.83626658  0.71911983  0.59274691     0.42500
N1730       N  0.80853855  0.72159828  0.54140407     0.01400
C1731       C  0.78394324  0.84396098  0.41976678    -0.06500
H1732       H  0.76752576  0.86001629  0.57961726     0.06900
C1733       C  0.68599058  0.78816810  0.57304471    -0.06300
Co1734     Co  0.81732630  0.77845557  0.49578904     0.74200
N1735       N  0.78467815  0.82649223  0.53955138    -0.26000
Co1736     Co  0.75182506  0.82003091  0.49654070     0.74100
C1737       C  0.69125046  0.81691262  0.59147714     0.42600
N1738       N  0.71898106  0.72283800  0.54210943     0.01000
N1739       N  0.71996657  0.81252846  0.54082577     0.01100
N1740       N  0.82664686  0.81708287  0.42155672    -0.46800
H1741       H  0.85725891  0.76467961  0.57929772     0.06900
N1742       N  0.80980857  0.81118042  0.53879924     0.01400
N1743       N  0.71905259  0.81244858  0.45407463     0.01200
C1744       C  0.68861543  0.81733639  0.40562008     0.42800
N1745       N  0.74401260  0.70738576  0.54291613    -0.25500
C1746       C  0.84209278  0.74389983  0.42097327    -0.06400
N1747       N  0.81535223  0.70440476  0.57232682    -0.46600
N1748       N  0.71065716  0.83100779  0.42527723    -0.46800
C1749       C  0.83682626  0.71468549  0.40343919     0.42500
N1750       N  0.80895790  0.81029151  0.45187481     0.01400
N1751       N  0.74350501  0.70635750  0.45547423    -0.25500
N1752       N  0.82392855  0.74656593  0.54037947    -0.26000
N1753       N  0.71860015  0.72209277  0.45568561     0.01000
H1754       H  0.75951699  0.67091853  0.41756579     0.06900
H1755       H  0.66868214  0.77091599  0.41713706     0.07000
N1756       N  0.78393620  0.82583000  0.45179388    -0.26000
N1757       N  0.70460106  0.78753862  0.54165598    -0.25600
N1758       N  0.80839066  0.72012334  0.45438793     0.01400
C1759       C  0.81382375  0.83947008  0.58965528     0.42800
C1760       C  0.74346165  0.68910210  0.57483699    -0.06900
N1761       N  0.70389811  0.78733249  0.45435770    -0.25600
H1762       H  0.67052629  0.77086417  0.58156445     0.06900
N1763       N  0.82784654  0.81825575  0.56828292    -0.46900
H1764       H  0.76076720  0.67358503  0.58347711     0.06900
C1765       C  0.71341697  0.69194792  0.40719924     0.42600
C1766       C  0.84208859  0.74701559  0.57188806    -0.06400
Co1767     Co  0.77630919  0.71317332  0.49856846     0.73800
N1768       N  0.70074971  0.71585668  0.57171656    -0.46600
C1769       C  0.81237452  0.83826497  0.40029663     0.42900
N1770       N  0.81546059  0.70142196  0.42547766    -0.46600
Co1771     Co  0.71095676  0.75479908  0.49834175     0.73900
C1772       C  0.68437864  0.78817977  0.42429604    -0.06900
C1773       C  0.78507831  0.84481228  0.57100314    -0.06500
N1774       N  0.82371154  0.74513567  0.45269892    -0.26000
N1775       N  0.71266036  0.83076361  0.57015865    -0.46700
H1776       H  0.76641437  0.85931399  0.41143220     0.06900
C1777       C  0.74244247  0.68692474  0.42528612    -0.06900
Cl1778     Cl  0.76410929  0.76661258  0.49712164    -0.49900
C1779       C  0.71462242  0.69467502  0.59337366     0.42700
H1780       H  0.85742385  0.76109561  0.41162685     0.06900
N1781       N  0.70002783  0.71418337  0.42729835    -0.46600
C1782       C  0.60277339  0.60437008  0.69774181    -0.12200
C1783       C  0.58861233  0.59357146  0.33577717     0.04800
C1784       C  0.59724107  0.60948593  0.30152093    -0.07500
C1785       C  0.62172161  0.62853714  0.30293712    -0.08200
C1786       C  0.63836065  0.63171085  0.33813959    -0.02800
C1787       C  0.62549722  0.62537850  0.70036073     0.04000
N1788       N  0.63564774  0.63307910  0.73907790     0.66500
H1789       H  0.59406454  0.59413278  0.72470141     0.15400
H1790       H  0.62791468  0.64053516  0.27604961     0.15100
N1791       N  0.58184675  0.60565225  0.26485057     0.74200
O1792       O  0.62161902  0.65261477  0.75848512    -0.39200
O1793       O  0.66434579  0.59472912  0.41502693    -0.39200
O1794       O  0.56612614  0.61642865  0.57705756    -0.39900
O1795       O  0.58681004  0.58278656  0.24421052    -0.39900
C1796       C  0.93547312  0.61449333  0.63030972    -0.12200
C1797       C  0.93845727  0.59476530  0.32943770     0.04800
C1798       C  0.92645652  0.60600522  0.36498916    -0.07500
C1799       C  0.90553976  0.62915648  0.36367481    -0.08200
C1800       C  0.89578443  0.64144184  0.32726132    -0.02800
C1801       C  0.91721372  0.63984862  0.62919746     0.04000
N1802       N  0.91763172  0.65792817  0.59393973     0.66500
H1803       H  0.94899343  0.60907499  0.60453874     0.15400
H1804       H  0.89688669  0.63743766  0.39162963     0.15100
N1805       N  0.93514170  0.59401037  0.40272326     0.74200
O1806       O  0.93895604  0.67564056  0.58833877    -0.39200
O1807       O  0.90219093  0.65027309  0.56457564    -0.39200
O1808       O  0.95046554  0.60968461  0.42574646    -0.39900
O1809       O  0.92182326  0.57147065  0.41652924    -0.39900
C1810       C  0.61246954  0.89546224  0.62495762    -0.12200
C1811       C  0.62789503  0.89059613  0.33017306     0.04800
C1812       C  0.61843327  0.90610435  0.36471814    -0.07500
C1813       C  0.59989247  0.93109374  0.36118274    -0.08200
C1814       C  0.58404893  0.93462776  0.65692344    -0.02800
C1815       C  0.59193261  0.91898059  0.62249660     0.04000
N1816       N  0.57913639  0.92692157  0.58499458     0.66500
H1817       H  0.61844791  0.88391138  0.59788815     0.15400
H1818       H  0.59250349  0.94247027  0.38781909     0.15100
N1819       N  0.62591667  0.89615433  0.40388762     0.74200
O1820       O  0.59878156  0.95513528  0.23268052    -0.39200
O1821       O  0.55364203  0.91746210  0.57644970    -0.39200
O1822       O  0.64529912  0.91014905  0.42305195    -0.39900
O1823       O  0.61001913  0.87894619  0.75786955    -0.39900
C1824       C  0.92598229  0.92714916  0.69475266    -0.12200
C1825       C  0.93179549  0.94337184  0.65988102     0.04800
C1826       C  0.91306455  0.93592873  0.28775974    -0.07500
C1827       C  0.89001027  0.91504365  0.28936820    -0.08200
C1828       C  0.88451033  0.89806559  0.32417738    -0.02800
C1829       C  0.90284843  0.90640456  0.69653019     0.04000
N1830       N  0.90072592  0.88420948  0.39260955     0.66500
H1831       H  0.93957331  0.93062390  0.72079622     0.15400
H1832       H  0.87624851  0.91234020  0.26333757     0.15100
N1833       N  0.91893818  0.95607362  0.59069250     0.74200
O1834       O  0.91351758  0.86654978  0.73862805    -0.39200
O1835       O  0.88984806  0.89559412  0.42368500    -0.39200
O1836       O  0.94078646  0.94972332  0.56860760    -0.39900
O1837       O  0.90741871  0.97738256  0.24617373    -0.39900
C1838       C  0.85962430  0.87996245  0.66285688     0.80300
N1839       N  0.84422153  0.87113215  0.96505244    -0.78000
C1840       C  0.82104392  0.85187096  0.96367346     0.82700
N1841       N  0.80852216  0.84175189  0.99802652    -0.78000
C1842       C  0.82376907  0.85139324  0.69769908     0.82800
N1843       N  0.84739701  0.87010391  0.69768056    -0.79700
C1844       C  0.64751064  0.86216787  0.66279883     0.80300
N1845       N  0.65789024  0.85219779  0.96350183    -0.78000
C1846       C  0.67614340  0.82793970  0.96343135     0.82700
N1847       N  0.68400010  0.81487412  0.99852339    -0.78000
C1848       C  0.67799295  0.82854275  0.69877008     0.82800
N1849       N  0.65778540  0.85109941  0.69798827    -0.79700
C1850       C  0.87954976  0.67381468  0.66389659     0.80300
N1851       N  0.86314556  0.68158183  0.96312050    -0.78000
C1852       C  0.84485332  0.70567681  0.96332436     0.82700
N1853       N  0.83963573  0.71969809  0.66531685    -0.78000
C1854       C  0.84972586  0.70784854  0.70007015     0.82800
N1855       N  0.86945323  0.68480519  0.69924175    -0.79700
N1856       N  0.50956885  0.97272658  0.98602700    -0.36600
N1857       N  0.55779695  0.51451841  0.98131495    -0.57100
N1858       N  0.51346890  0.56140500  0.98730982    -0.36500
N1859       N  0.96413466  0.51711295  0.99628984    -0.57100
C1860       C  0.53262532  0.95499812  0.99662340     0.27000
C1861       C  0.98283445  0.95464661  0.00693595     0.27000
C1862       C  0.53849957  0.57701312  0.99432859     0.27000
C1863       C  0.98559741  0.57896066  0.01278080     0.27000
C1864       C  0.57361161  0.99174612  0.98839607     0.35700
C1865       C  0.57585765  0.53817253  0.97639561     0.35700
C1866       C  0.94480116  0.99425963  0.99740848     0.35700
C1867       C  0.94694608  0.54181531  0.99395818     0.35700
C1868       C  0.52201002  0.92755256  0.00944986    -0.21800
C1869       C  0.99162440  0.92674024  0.02060666    -0.21800
C1870       C  0.53105068  0.60421065  0.01101279    -0.21800
C1871       C  0.99399040  0.60617304  0.02834303    -0.21800
C1872       C  0.60334260  0.49819191  0.96460831    -0.22900
C1873       C  0.60421999  0.52872431  0.96603831    -0.22900
C1874       C  0.91848188  0.50406099  0.97673070    -0.22900
C1875       C  0.91852850  0.53434862  0.98203529    -0.22900
C1876       C  0.56301924  0.96233823  0.99312521    -0.18200
C1877       C  0.95307020  0.96407616  0.00212555    -0.18200
C1878       C  0.95600458  0.57083997  0.00424251    -0.18200
C1879       C  0.56780448  0.56788274  0.98484357    -0.18200
H1880       H  0.53484839  0.90848321  0.01947191     0.14700
H1881       H  0.97746730  0.90868665  0.03051539     0.14700
H1882       H  0.54598871  0.62178621  0.01964964     0.14700
H1883       H  0.97960991  0.62426397  0.03758938     0.14700
H1884       H  0.62186662  0.98425916  0.97902263     0.13000
H1885       H  0.62367662  0.54234426  0.96104901     0.13000
H1886       H  0.89733212  0.99096433  0.98080771     0.13000
H1887       H  0.89967918  0.54912325  0.97803881     0.13000
H1888       H  0.51095641  0.99371102  0.97299455     0.26200
H1889       H  0.51218340  0.54122164  0.97271291     0.26200
C1890       C  0.66440184  0.65805569  0.66573093     0.80300
N1891       N  0.67699064  0.66339083  0.96173144    -0.78000
C1892       C  0.70038304  0.68232930  0.96319346     0.82700
N1893       N  0.71510081  0.69111034  0.66579025    -0.78000
C1894       C  0.70186346  0.68332291  0.70070009     0.82800
N1895       N  0.67652424  0.66704478  0.70057439    -0.79700
C1896       C  0.83343075  0.71740822  0.92590673     0.42500
N1897       N  0.80614795  0.72187446  0.87455904     0.01400
C1898       C  0.78346969  0.84535687  0.75450109    -0.06500
H1899       H  0.76482442  0.86119114  0.91424936     0.06900
C1900       C  0.68384537  0.78850546  0.90668233    -0.06300
Co1901     Co  0.81554440  0.77969776  0.83152984     0.74200
N1902       N  0.78229552  0.82743044  0.87481687    -0.26000
Co1903     Co  0.75011988  0.82125280  0.83094177     0.74100
C1904       C  0.68888963  0.81709017  0.92574997     0.42600
N1905       N  0.71681264  0.72355238  0.87492575     0.01000
N1906       N  0.71759063  0.81344645  0.87471801     0.01100
N1907       N  0.82610755  0.81854766  0.75765075    -0.46800
H1908       H  0.85427858  0.76360884  0.91609882     0.06900
N1909       N  0.80730055  0.81190549  0.87479685     0.01400
N1910       N  0.71815669  0.81366141  0.78750475     0.01200
C1911       C  0.68983160  0.81779363  0.73680037     0.42800
N1912       N  0.74173735  0.70788984  0.87530545    -0.25500
C1913       C  0.84212984  0.74674870  0.75736334    -0.06400
N1914       N  0.81272958  0.70354193  0.90429216    -0.46600
N1915       N  0.71108007  0.83174715  0.75757210    -0.46800
C1916       C  0.83730391  0.71816476  0.73818243     0.42500
N1917       N  0.80804602  0.81198092  0.78771738     0.01400
N1918       N  0.74229988  0.70841908  0.78754736    -0.25500
N1919       N  0.82137626  0.74693154  0.87538593    -0.26000
N1920       N  0.71719242  0.72377490  0.78822423     0.01000
H1921       H  0.75931923  0.67451403  0.74798547     0.06900
H1922       H  0.66919764  0.77170046  0.74811686     0.07000
N1923       N  0.78298086  0.82743022  0.78684433    -0.26000
N1924       N  0.70240157  0.78833915  0.87516552    -0.25600
N1925       N  0.80727921  0.72229521  0.78778130     0.01400
C1926       C  0.81085422  0.84037263  0.92539838     0.42800
C1927       C  0.74109689  0.68940135  0.90709338    -0.06900
N1928       N  0.70283929  0.78864429  0.78748726    -0.25600
H1929       H  0.66858261  0.77096326  0.91497342     0.06900
N1930       N  0.82498513  0.81890173  0.90466162    -0.46900
H1931       H  0.75836847  0.67380437  0.91558865     0.06900
C1932       C  0.71303736  0.69517977  0.73804705     0.42600
C1933       C  0.83916944  0.74626071  0.90730456    -0.06400
Co1934     Co  0.77451330  0.71440932  0.83118767     0.73800
N1935       N  0.69865881  0.71657812  0.90470919    -0.46600
C1936       C  0.81215793  0.83948338  0.73554106     0.42900
N1937       N  0.81522795  0.70432703  0.75838122    -0.46600
Co1938     Co  0.70916970  0.75593859  0.83143376     0.73900
C1939       C  0.68446657  0.78912259  0.75615004    -0.06900
C1940       C  0.78237499  0.84582211  0.90615543    -0.06500
N1941       N  0.82275285  0.74722306  0.78796503    -0.26000
N1942       N  0.71015113  0.83130207  0.90447196    -0.46700
H1943       H  0.76601211  0.86056019  0.74544996     0.06900
C1944       C  0.74189817  0.68996431  0.75631191    -0.06900
Cl1945     Cl  0.76233992  0.76782375  0.83122628    -0.49900
C1946       C  0.71246035  0.69522413  0.92623066     0.42700
H1947       H  0.85782329  0.76408007  0.74978157     0.06900
N1948       N  0.69902798  0.71649588  0.75909777    -0.46600
C1949       C  0.60835479  0.59172272  0.02253637    -0.12200
C1950       C  0.59128182  0.59630886  0.66090612     0.04800
C1951       C  0.60192494  0.61017592  0.62607799    -0.07500
C1952       C  0.62509976  0.63078973  0.62831169    -0.08200
C1953       C  0.63777383  0.63828921  0.66522064    -0.02800
C1954       C  0.63204121  0.61157363  0.02582043     0.04000
N1955       N  0.64960015  0.61010150  0.06102783     0.66500
H1956       H  0.60318346  0.57684757  0.04720069     0.15400
H1957       H  0.63337727  0.64062029  0.60087713     0.15100
N1958       N  0.58946097  0.60320679  0.58829306     0.74200
O1959       O  0.63971479  0.62159460  0.09260200    -0.39200
O1960       O  0.65295126  0.61551571  0.75727717    -0.39200
O1961       O  0.55859320  0.61740405  0.91412401    -0.39900
O1962       O  0.59809509  0.58016652  0.57025626    -0.39900
C1963       C  0.93012898  0.61090630  0.96714393    -0.12200
C1964       C  0.93717693  0.59662042  0.66454467     0.04800
C1965       C  0.92017789  0.60412493  0.69824282    -0.07500
C1966       C  0.90185646  0.62937410  0.69732265    -0.08200
C1967       C  0.90000521  0.64762517  0.66315907    -0.02800
C1968       C  0.90987452  0.63452218  0.96426741     0.04000
N1969       N  0.90761563  0.64994495  0.92699935     0.66500
H1970       H  0.94346101  0.60501196  0.94138640     0.15400
H1971       H  0.88895568  0.63460569  0.72368557     0.15100
N1972       N  0.92181793  0.58674679  0.73398516     0.74200
O1973       O  0.92637808  0.66979952  0.91836855    -0.39200
O1974       O  0.89259390  0.63855242  0.89950973    -0.39200
O1975       O  0.93992373  0.59408399  0.76062314    -0.39900
O1976       O  0.90072260  0.56948624  0.74285477    -0.39900
C1977       C  0.61462810  0.89976853  0.96115919    -0.12200
C1978       C  0.62505505  0.88684624  0.66177553     0.04800
C1979       C  0.61588788  0.90230664  0.69652125    -0.07500
C1980       C  0.59587715  0.92611028  0.69357266    -0.08200
C1981       C  0.58499474  0.93757903  0.99440812    -0.02800
C1982       C  0.59430796  0.92353717  0.95930762     0.04000
N1983       N  0.58362532  0.93374929  0.92155218     0.66500
H1984       H  0.62118751  0.88919200  0.93361130     0.15400
H1985       H  0.58929922  0.93795452  0.72021331     0.15100
N1986       N  0.62640837  0.89438803  0.73521929     0.74200
O1987       O  0.59003536  0.94819697  0.56500871    -0.39200
O1988       O  0.55760447  0.92734250  0.91100466    -0.39200
O1989       O  0.64716264  0.90929166  0.75015160    -0.39900
O1990       O  0.61449322  0.87905439  0.09332637    -0.39900
C1991       C  0.91154167  0.93770493  0.03642666    -0.12200
C1992       C  0.92916371  0.94141236  0.00238113     0.04800
C1993       C  0.91385779  0.93915567  0.62634617    -0.07500
C1994       C  0.89065652  0.91845766  0.62787565    -0.08200
C1995       C  0.88477410  0.90163602  0.66270261    -0.02800
C1996       C  0.88701264  0.91862703  0.03644815     0.04000
N1997       N  0.89863491  0.89007767  0.73279275     0.66500
H1998       H  0.91626037  0.95056996  0.06276572     0.15400
H1999       H  0.87706062  0.91576855  0.60168482     0.15100
N2000       N  0.93822900  0.93130150  0.93158387     0.74200
O2001       O  0.87499399  0.90244523  0.10037665    -0.39200
O2002       O  0.88666047  0.90290294  0.76209991    -0.39200
O2003       O  0.96277065  0.91830315  0.92582646    -0.39900
O2004       O  0.90527877  0.98040835  0.58538413    -0.39900
loop_ 
_geom_bond_atom_site_label_1 
_geom_bond_atom_site_label_2 
_geom_bond_distance 
_geom_bond_site_symmetry_2 
_ccdc_geom_bond_type 
C1            N6   1.363   1_556  A
C1          N336   1.362       .  A
C1          C158   1.498       .  S
N2            C3   1.359       .  A
N2          C168   1.363       .  A
C3            N4   1.358       .  A
C3           C89   1.466       .  S
N4          C172   1.358       .  A
C5            N6   1.361       .  A
C5          N338   1.358   1_554  A
C5           C99   1.467       .  S
C7           N12   1.362   1_556  A
C7          N342   1.361       .  A
C7          C141   1.498       .  S
N8            C9   1.349       .  A
N8          C174   1.354       .  A
C9           N10   1.355       .  A
C9           C67   1.450       .  S
N10         C178   1.357       .  A
C11          N12   1.359       .  A
C11         N344   1.358   1_554  A
C11          C74   1.469       .  S
C13          N18   1.361   1_556  A
C13         N348   1.355       .  A
C13         C130   1.482       .  S
N14          C15   1.354       .  A
N14         C180   1.356       .  A
C15         N183   1.357       .  A
C15          C59   1.451       .  S
N16          C17   1.355       .  A
N16         C349   1.354   1_554  A
C17          N18   1.358       .  A
C17          C79   1.456       .  S
N19          C23   1.353       .  A
N19        C1026   1.355   1_455  A
N19          H51   1.034       .  S
N20          C28   1.352       .  A
N20         C528   1.351   1_545  A
N21          C25   1.354       .  A
N21        C1028   1.352   1_455  A
N21          H52   1.035       .  S
N22          C30   1.350       .  A
N22         C530   1.351   1_545  A
C23          C31   1.389       .  A
C23          C39   1.419       .  A
C24        N1021   1.354       .  A
C24          C40   1.414       .  A
C24          C32   1.386       .  A
C25          C33   1.386       .  A
C25          C42   1.416       .  A
C26        N1023   1.350       .  A
C26          C41   1.412       .  A
C26          C34   1.388       .  A
C27         N521   1.348       .  A
C27          C39   1.412       .  A
C27         C536   1.388       .  A
C28          C42   1.414       .  A
C28          C36   1.386       .  A
C29         N523   1.350       .  A
C29          C40   1.412       .  A
C29         C538   1.386       .  A
C30          C38   1.386       .  A
C30          C41   1.412       .  A
C31        C1034   1.372       .  A
C31          H43   1.082       .  S
C32        C1033   1.371       .  A
C32          H44   1.082       .  S
C33        C1036   1.376   1_455  A
C33          H45   1.082       .  S
C34        C1035   1.372       .  A
C34          H46   1.082       .  S
C35          C36   1.372   1_565  A
C35         C528   1.387       .  A
C35         H548   1.082       .  S
C36          H48   1.082       .  S
C37          C38   1.374       .  A
C37         C530   1.386   1_545  A
C37         H550   1.082   1_545  S
C38          H50   1.082       .  S
C39         C144   1.477       .  S
C40         C155   1.480       .  S
C41         C294   1.476       .  S
C42         C280   1.490       .  S
H47         C536   1.082       .  S
H49         C538   1.082       .  S
C53          N58   1.363       .  A
C53         N388   1.364   1_554  A
C53         C116   1.497       .  S
N54          C55   1.359       .  A
N54         C220   1.363       .  A
C55         N223   1.359       .  A
C55         C109   1.472       .  S
N56          C57   1.358       .  A
N56         C389   1.358   1_554  A
C57          N58   1.361       .  A
C57          C95   1.470       .  S
C59          N77   1.347       .  A
C59          C96   1.448       .  S
N60          N77   1.324       .  A
N60          N82   1.321       .  A
N60         Co97   2.085       .  S
C61          N86   1.344       .  A
C61          C99   1.460       .  S
C61         H106   1.081       .  S
H62         C103   1.081       .  S
C63          N87   1.341       .  A
C63          C67   1.451       .  S
C63          H92   1.081       .  S
Co64         N82   2.076       .  S
Co64         N72   2.079       .  S
Co64        N104   2.084       .  S
Co64         N80   2.085       .  S
Co64       Cl108   2.456       .  S
N65         C103   1.346       .  A
N65          N72   1.319       .  A
N65         Co66   2.098       .  S
Co66         N69   2.078       .  S
Co66         N86   2.098       .  S
Co66         N73   2.088       .  S
Co66       Cl108   2.454       .  S
C67         N105   1.345       .  A
N68          N75   1.319       .  A
N68          N98   1.327       .  A
N68        Co101   2.095       .  S
N69          N87   1.321       .  A
N69         N105   1.322       .  A
N70          C99   1.348       .  A
N70          N80   1.325       .  A
H71          C96   1.081       .  S
N72          N93   1.325       .  A
N73          N91   1.322       .  A
N73          N78   1.326       .  A
C74          N78   1.348       .  A
C74         C102   1.460       .  S
N75          C90   1.345       .  A
N75         Co97   2.092       .  S
C76         N104   1.340       .  A
C76          C79   1.455       .  S
C76         H110   1.081       .  S
C79         N100   1.347       .  A
N80          N86   1.321       .  A
N81         C107   1.345       .  A
N81          N83   1.321       .  A
N81         Co97   2.104       .  S
N82          C96   1.339       .  A
N83         N111   1.326       .  A
N83        Co101   2.086       .  S
H84         C107   1.081       .  S
H85         C102   1.081       .  S
N87        Co101   2.081       .  S
N88         N100   1.324       .  A
N88         N104   1.321       .  A
N88         Co97   2.083       .  S
C89          N93   1.346       .  A
C89         C103   1.461       .  S
C90         C109   1.458       .  S
C90          H94   1.081       .  S
N91         C102   1.345       .  A
N91        Co101   2.103       .  S
C95         N111   1.349       .  A
C95         C107   1.461       .  S
Co97       Cl108   2.453       .  S
N98         C109   1.350       .  A
Co101      Cl108   2.457       .  S
C112        C117   1.404       .  A
C112        C280   1.399       .  A
C112        H119   1.084       .  S
C113        C376   1.489       .  S
C113        C114   1.406       .  A
C113        C446   1.398   1_556  A
C114        C115   1.405       .  A
C114        N121   1.429       .  S
C115        C116   1.411   1_556  A
C115        H120   1.083       .  S
C116        C451   1.419       .  A
C117        C283   1.419       .  A
C117        N118   1.427       .  S
N118        O122   1.262       .  A
N118        O290   1.262       .  A
N121        O125   1.262       .  A
N121        O458   1.262       .  A
O123        N452   1.262       .  A
O124        N288   1.262       .  A
C126        C131   1.400       .  A
C126        C294   1.398       .  A
C126        H133   1.084       .  S
C127        C375   1.478       .  S
C127        C128   1.407   1_556  A
C127        C460   1.396       .  A
C128        C129   1.398       .  A
C128        N135   1.428       .  S
C129        C130   1.405   1_554  A
C129        H134   1.084       .  S
C130        C465   1.418       .  A
C131        C297   1.420       .  A
C131        N132   1.430       .  S
N132        O136   1.262       .  A
N132        O137   1.262       .  A
N135        O139   1.262       .  A
N135        O138   1.262       .  A
C140        C145   1.397       .  A
C140        C308   1.413       .  A
C140        H147   1.083       .  S
C141        C142   1.421   1_556  A
C141        C474   1.415       .  A
C142        C143   1.397       .  A
C142        N149   1.427       .  S
C143        C478   1.394   1_554  A
C143        H148   1.084       .  S
C144        C145   1.401       .  A
C144        C310   1.398       .  A
C145        N146   1.430       .  S
N146        O317   1.262       .  A
N146        O151   1.262       .  A
N149        O487   1.262       .  A
N149        O152   1.262       .  A
O150        N480   1.262       .  A
O153        N316   1.261       .  A
C154        C155   1.394       .  A
C154        C159   1.397       .  A
C154        H161   1.084       .  S
C155        C323   1.403       .  A
C156        C157   1.402       .  A
C156        C489   1.403       .  A
C156        N497   1.430       .  S
C157        C158   1.414       .  A
C157        H162   1.083       .  S
C158        C493   1.420   1_556  A
C159        C325   1.422       .  A
C159        N327   1.428       .  S
N160        C493   1.427       .  S
N160        O498   1.262       .  A
N160        O165   1.262       .  A
N163        C323   1.429       .  S
N163        O334   1.262       .  A
N163        O166   1.262       .  A
O164        N327   1.262       .  A
O167        N497   1.262       .  A
C168        N173   1.360       .  A
C168        C325   1.496       .  S
N169        C335   1.364       .  A
N169        C170   1.359       .  A
C170        N171   1.357       .  A
C170        C256   1.472       .  S
N171        C339   1.359       .  A
C172        N173   1.357       .  A
C172        C266   1.463       .  S
C174        N179   1.363       .  A
C174        C308   1.485       .  S
N175        C341   1.363       .  A
N175        C176   1.360       .  A
C176        N177   1.356       .  A
C176        C234   1.461       .  S
N177        C345   1.355       .  A
C178        N179   1.362       .  A
C178        C241   1.461       .  S
C180        N185   1.362       .  A
C180        C297   1.484       .  S
N181        C347   1.356       .  A
N181        C182   1.354       .  A
C182        N350   1.356       .  A
C182        C226   1.454       .  S
N183        C184   1.355       .  A
C184        N185   1.355       .  A
C184        C246   1.462       .  S
N186       C1193   1.353   1_455  A
N186        C190   1.352       .  A
N186        H218   1.037       .  S
N187        C695   1.351   1_545  A
N187        C195   1.350       .  A
N188       C1195   1.354   1_455  A
N188        C192   1.353       .  A
N188        H219   1.030       .  S
N189        C697   1.352   1_545  A
N189        C197   1.350       .  A
C190        C198   1.387       .  A
C190        C206   1.414       .  A
C191       N1188   1.358       .  A
C191        C207   1.422       .  A
C191        C199   1.386       .  A
C192        C200   1.387       .  A
C192        C209   1.416       .  A
C193       N1190   1.351       .  A
C193        C208   1.416       .  A
C193        C201   1.388       .  A
C194        N688   1.349       .  A
C194        C206   1.409       .  A
C194        C703   1.386       .  A
C195        C209   1.415       .  A
C195        C203   1.387       .  A
C196        N690   1.352       .  A
C196        C705   1.386       .  A
C196        C207   1.418       .  A
C197        C205   1.389       .  A
C197        C208   1.415       .  A
C198       C1201   1.375   1_455  A
C198        H210   1.082       .  S
C199       C1200   1.376       .  A
C199        H211   1.082       .  S
C200       C1203   1.374   1_455  A
C200        H212   1.082       .  S
C201       C1202   1.375       .  A
C201        H213   1.082       .  S
C202        C695   1.388   1_545  A
C202        C203   1.370       .  A
C202        H715   1.082   1_545  S
C203        H215   1.082       .  S
C204        C697   1.384   1_545  A
C204        C205   1.372       .  A
C204        H717   1.082   1_545  S
C205        H217   1.082       .  S
C206        C311   1.479       .  S
C207        C322   1.495       .  S
C208        C461   1.478       .  S
C209        C447   1.481       .  S
H214        C703   1.082       .  S
H216        C705   1.082       .  S
C220        N225   1.366       .  A
C220        C283   1.501       .  S
N221        C387   1.359       .  A
N221        C222   1.355       .  A
C222        N390   1.357       .  A
C222        C276   1.461       .  S
N223        C224   1.359       .  A
C224        N225   1.365       .  A
C224        C262   1.476       .  S
C226        N244   1.346       .  A
C226        C263   1.451       .  S
N227        N244   1.324       .  A
N227        N249   1.321       .  A
N227       Co264   2.089       .  S
C228        N253   1.344       .  A
C228        C266   1.458       .  S
C228        H273   1.081       .  S
H229        C270   1.081       .  S
C230        N254   1.343       .  A
C230        C234   1.458       .  S
C230        H259   1.081       .  S
Co231       N249   2.078       .  S
Co231       N239   2.092       .  S
Co231       N271   2.092       .  S
Co231       N247   2.078       .  S
Co231      Cl275   2.459       .  S
N232        C270   1.345       .  A
N232        N239   1.320       .  A
N232       Co233   2.098       .  S
Co233       N236   2.080       .  S
Co233       N253   2.097       .  S
Co233       N240   2.084       .  S
Co233      Cl275   2.454       .  S
C234        N272   1.347       .  A
N235        N242   1.320       .  A
N235        N265   1.323       .  A
N235       Co268   2.081       .  S
N236        N254   1.321       .  A
N236        N272   1.324       .  A
N237        C266   1.346       .  A
N237        N247   1.324       .  A
H238        C263   1.081       .  S
N239        N260   1.327       .  A
N240        N258   1.321       .  A
N240        N245   1.324       .  A
C241        N245   1.347       .  A
C241        C269   1.459       .  S
N242        C257   1.345       .  A
N242       Co264   2.092       .  S
C243        N271   1.342       .  A
C243        C246   1.455       .  S
C243        H277   1.081       .  S
C246        N267   1.349       .  A
N247        N253   1.321       .  A
N248        C274   1.349       .  A
N248        N250   1.322       .  A
N248       Co264   2.112       .  S
N249        C263   1.340       .  A
N250        N278   1.326       .  A
N250       Co268   2.089       .  S
H251        C274   1.082       .  S
H252        C269   1.081       .  S
N254       Co268   2.094       .  S
N255        N267   1.325       .  A
N255        N271   1.322       .  A
N255       Co264   2.088       .  S
C256        N260   1.350       .  A
C256        C270   1.460       .  S
C257        C276   1.457       .  S
C257        H261   1.081       .  S
N258        C269   1.343       .  A
N258       Co268   2.090       .  S
C262        N278   1.348       .  A
C262        C274   1.467       .  S
Co264      Cl275   2.457       .  S
N265        C276   1.346       .  A
Co268      Cl275   2.454       .  S
C279        C447   1.396       .  A
C279        C284   1.398       .  A
C279        H286   1.084       .  S
C280        C281   1.405       .  A
C281        C282   1.404       .  A
C281        N288   1.430       .  S
C282        C283   1.413       .  A
C282        H287   1.083       .  S
C284        C450   1.419       .  A
C284        N285   1.427       .  S
N285        O289   1.262       .  A
N285        O457   1.262       .  A
N288        O292   1.262       .  A
O291        N455   1.262       .  A
C293        C461   1.396       .  A
C293        C298   1.396       .  A
C293        H300   1.084       .  S
C294        C295   1.403       .  A
C295        C296   1.392       .  A
C295        N302   1.428       .  S
C296        C297   1.406       .  A
C296        H301   1.083       .  S
C298        C464   1.422       .  A
C298        N299   1.429       .  S
N299        O303   1.262       .  A
N299        O304   1.262       .  A
N302        O306   1.261       .  A
N302        O305   1.262       .  A
C307        C475   1.412       .  A
C307        C312   1.401       .  A
C307        H314   1.083       .  S
C308        C309   1.414       .  A
C309        C310   1.397       .  A
C309        N316   1.427       .  S
C310        H315   1.084       .  S
C311        C477   1.394       .  A
C311        C312   1.403       .  A
C312        N313   1.429       .  S
N313        O484   1.262       .  A
N313        O318   1.262       .  A
N316        O319   1.262       .  A
O320        N483   1.262       .  A
C321        C322   1.401       .  A
C321        C326   1.403       .  A
C321        H328   1.084       .  S
C322        C490   1.408       .  A
C323        C324   1.402       .  A
C324        C325   1.413       .  A
C324        H329   1.083       .  S
C326        C492   1.420       .  A
C326        N494   1.428       .  S
N327        O332   1.262       .  A
N330        C490   1.428       .  S
N330        O501   1.262       .  A
N330        O333   1.262       .  A
O331        N494   1.262       .  A
C335        N340   1.365       .  A
C335        C492   1.503       .  S
N336        C337   1.357       .  A
C337        N338   1.357       .  A
C337        C423   1.465       .  S
C339        N340   1.363       .  A
C339        C433   1.471       .  S
C341        N346   1.358       .  A
C341        C475   1.495       .  S
N342        C343   1.358       .  A
C343        N344   1.358       .  A
C343        C401   1.465       .  S
C345        N346   1.355       .  A
C345        C408   1.457       .  S
C347        N352   1.364       .  A
C347        C464   1.490       .  S
N348        C349   1.352       .  A
C349        C393   1.449       .  S
N350        C351   1.356       .  A
C351        N352   1.358       .  A
C351        C413   1.465       .  S
N353       C1360   1.356   1_455  A
N353        C357   1.352       .  A
N353        H385   1.037       .  S
N354        C862   1.348   1_545  A
N354        C362   1.351       .  A
N355       C1362   1.350   1_456  A
N355        C359   1.354   1_556  A
N355        H386   1.038       .  S
N356        C864   1.348   1_545  A
N356        C364   1.347       .  A
C357        C365   1.389   1_556  A
C357        C373   1.417       .  A
C358       N1355   1.352       .  A
C358        C374   1.411       .  A
C358        C366   1.386       .  A
C359        C367   1.386       .  A
C359        C376   1.413   1_554  A
C360       N1357   1.353       .  A
C360        C375   1.415       .  A
C360        C368   1.387   1_556  A
C361        N855   1.349       .  A
C361        C373   1.413       .  A
C361        C870   1.387       .  A
C362        C376   1.409       .  A
C362        C370   1.385       .  A
C363        N857   1.351       .  A
C363        C872   1.385       .  A
C363        C374   1.410       .  A
C364        C372   1.387       .  A
C364        C375   1.407       .  A
C365       C1368   1.374   1_455  A
C365        H377   1.082       .  S
C366       C1367   1.373       .  A
C366        H378   1.082   1_556  S
C367       C1370   1.376   1_455  A
C367        H379   1.082       .  S
C368       C1369   1.376       .  A
C368        H380   1.082       .  S
C369        C862   1.387       .  A
C369        C370   1.373   1_565  A
C369        H882   1.082       .  S
C370        H382   1.082       .  S
C371        C864   1.386   1_545  A
C371        C372   1.371       .  A
C371        H884   1.082   1_545  S
C372        H384   1.082       .  S
C373        C478   1.479       .  S
C374        C489   1.481       .  S
H381        C870   1.082       .  S
H383        C872   1.082       .  S
C387        N392   1.364       .  A
C387        C450   1.496       .  S
N388        C389   1.361       .  A
C389        C443   1.472       .  S
N390        C391   1.358       .  A
C391        N392   1.361       .  A
C391        C429   1.469       .  S
C393        N411   1.344       .  A
C393        C430   1.452       .  S
N394        N411   1.322       .  A
N394        N416   1.321       .  A
N394       Co431   2.073       .  S
C395        N420   1.344       .  A
C395        C433   1.460       .  S
C395        H440   1.081       .  S
H396        C437   1.081       .  S
C397        N421   1.345       .  A
C397        C401   1.458       .  S
C397        H426   1.081       .  S
Co398       N416   2.084       .  S
Co398       N406   2.085       .  S
Co398       N438   2.090       .  S
Co398       N414   2.091       .  S
Co398      Cl442   2.458       .  S
N399        C437   1.345       .  A
N399        N406   1.320       .  A
N399       Co400   2.093       .  S
Co400       N403   2.084       .  S
Co400       N420   2.099       .  S
Co400       N407   2.083       .  S
Co400      Cl442   2.455       .  S
C401        N439   1.347       .  A
N402        N409   1.320       .  A
N402        N432   1.327       .  A
N402       Co435   2.087       .  S
N403        N421   1.322       .  A
N403        N439   1.325       .  A
N404        C433   1.350       .  A
N404        N414   1.327       .  A
H405        C430   1.081       .  S
N406        N427   1.325       .  A
N407        N425   1.322       .  A
N407        N412   1.324       .  A
C408        N412   1.346       .  A
C408        C436   1.454       .  S
N409        C424   1.346       .  A
N409       Co431   2.104       .  S
C410        N438   1.342       .  A
C410        C413   1.456       .  S
C410        H444   1.081       .  S
C413        N434   1.350       .  A
N414        N420   1.321       .  A
N415        C441   1.343       .  A
N415        N417   1.321       .  A
N415       Co431   2.090       .  S
N416        C430   1.341       .  A
N417        N445   1.327       .  A
N417       Co435   2.096       .  S
H418        C441   1.081       .  S
H419        C436   1.081       .  S
N421       Co435   2.097       .  S
N422        N434   1.326       .  A
N422        N438   1.322       .  A
N422       Co431   2.095       .  S
C423        N427   1.347       .  A
C423        C437   1.459       .  S
C424        C443   1.461       .  S
C424        H428   1.081       .  S
N425        C436   1.342       .  A
N425       Co435   2.089       .  S
C429        N445   1.350       .  A
C429        C441   1.458       .  S
Co431      Cl442   2.453       .  S
N432        C443   1.349       .  A
Co435      Cl442   2.458       .  S
C446        C451   1.402       .  A
C446        H453   1.084       .  S
C447        C448   1.403       .  A
C448        C449   1.402       .  A
C448        N455   1.430       .  S
C449        C450   1.415       .  A
C449        H454   1.083       .  S
C451        N452   1.428       .  S
N452        O456   1.262       .  A
N455        O459   1.262       .  A
C460        C465   1.396       .  A
C460        H467   1.084       .  S
C461        C462   1.404       .  A
C462        C463   1.397       .  A
C462        N469   1.428       .  S
C463        C464   1.408       .  A
C463        H468   1.083       .  S
C465        N466   1.429       .  S
N466        O470   1.262       .  A
N466        O471   1.262       .  A
N469        O473   1.262       .  A
N469        O472   1.262       .  A
C474        C479   1.403       .  A
C474        H481   1.083       .  S
C475        C476   1.423       .  A
C476        C477   1.397       .  A
C476        N483   1.428       .  S
C477        H482   1.084       .  S
C478        C479   1.403       .  A
C479        N480   1.431       .  S
N480        O485   1.262       .  A
N483        O486   1.262       .  A
C488        C489   1.396   1_554  A
C488        C493   1.399       .  A
C488        H495   1.084       .  S
C490        C491   1.404       .  A
C491        C492   1.411       .  A
C491        H496   1.083       .  S
N494        O499   1.262       .  A
N497        O500   1.262       .  A
C502        N837   1.361       .  A
C502        N507   1.360   1_556  A
C502        C659   1.490       .  S
N503        C669   1.364       .  A
N503        C504   1.359       .  A
C504        N505   1.357       .  A
C504        C590   1.471       .  S
N505        C673   1.358       .  A
C506        N839   1.357   1_554  A
C506        N507   1.356       .  A
C506        C600   1.461       .  S
C508        N843   1.362       .  A
C508        N513   1.361   1_556  A
C508        C642   1.491       .  S
N509        C675   1.362       .  A
N509        C510   1.357       .  A
C510        N511   1.356       .  A
C510        C568   1.464       .  S
N511        C679   1.357       .  A
C512        N845   1.358       .  A
C512        N513   1.358       .  A
C512        C575   1.463       .  S
C514        N849   1.358       .  A
C514        N519   1.364   1_556  A
C514        C631   1.487       .  S
N515        C681   1.357       .  A
N515        C516   1.355       .  A
C516        N684   1.357       .  A
C516        C560   1.452       .  S
N517        C850   1.356       .  A
N517        C518   1.356   1_556  A
C518        N519   1.360       .  A
C518        C580   1.468       .  S
N520       C1527   1.352   1_455  A
N520        C524   1.350       .  A
N520        H552   1.033       .  S
N521        C529   1.349       .  A
N522       C1529   1.354   1_455  A
N522        C526   1.353       .  A
N522        H553   1.033       .  S
N523        C531   1.349       .  A
C524        C532   1.388       .  A
C524        C540   1.414       .  A
C525       N1522   1.354       .  A
C525        C541   1.415       .  A
C525        C533   1.386       .  A
C526        C534   1.386       .  A
C526        C543   1.415       .  A
C527       N1524   1.352       .  A
C527        C542   1.419       .  A
C527        C535   1.389       .  A
C528        C540   1.413       .  A
C529        C543   1.411       .  A
C529        C537   1.387       .  A
C530        C541   1.413       .  A
C531        C539   1.388       .  A
C531        C542   1.416       .  A
C532       C1535   1.376   1_455  A
C532        H544   1.082       .  S
C533       C1534   1.372       .  A
C533        H545   1.082       .  S
C534       C1537   1.373       .  A
C534        H546   1.083       .  S
C535       C1536   1.375       .  A
C535        H547   1.082       .  S
C536        C537   1.369       .  A
C537        H549   1.082       .  S
C538        C539   1.372       .  A
C539        H551   1.082       .  S
C540        C645   1.478       .  S
C541        C656   1.486       .  S
C542        C795   1.475       .  S
C543        C781   1.480       .  S
C554        N889   1.367   1_554  A
C554        N559   1.363       .  A
C554        C617   1.504       .  S
N555        C721   1.361       .  A
N555        C556   1.355       .  A
C556        N724   1.356       .  A
C556        C610   1.462       .  S
N557        C890   1.357   1_554  A
N557        C558   1.357       .  A
C558        N559   1.360       .  A
C558        C596   1.468       .  S
C560        N578   1.347       .  A
C560        C597   1.451       .  S
N561        N578   1.324       .  A
N561        N583   1.321       .  A
N561       Co598   2.083       .  S
C562        N587   1.342       .  A
C562        C600   1.456       .  S
C562        H607   1.081       .  S
H563        C604   1.081       .  S
C564        N588   1.342       .  A
C564        C568   1.454       .  S
C564        H593   1.081       .  S
Co565       N583   2.077       .  S
Co565       N573   2.098       .  S
Co565       N605   2.101       .  S
Co565       N581   2.081       .  S
Co565      Cl609   2.456       .  S
N566        C604   1.344       .  A
N566        N573   1.321       .  A
N566       Co567   2.093       .  S
Co567       N570   2.091       .  S
Co567       N587   2.092       .  S
Co567       N574   2.091       .  S
Co567      Cl609   2.457       .  S
C568        N606   1.350       .  A
N569        N576   1.321       .  A
N569        N599   1.325       .  A
N569       Co602   2.082       .  S
N570        N588   1.321       .  A
N570        N606   1.327       .  A
N571        C600   1.347       .  A
N571        N581   1.325       .  A
H572        C597   1.081       .  S
N573        N594   1.328       .  A
N574        N592   1.321       .  A
N574        N579   1.326       .  A
C575        N579   1.349       .  A
C575        C603   1.455       .  S
N576        C591   1.343       .  A
N576       Co598   2.093       .  S
C577        N605   1.344       .  A
C577        C580   1.460       .  S
C577        H611   1.081       .  S
C580        N601   1.349       .  A
N581        N587   1.321       .  A
N582        C608   1.344       .  A
N582        N584   1.321       .  A
N582       Co598   2.094       .  S
N583        C597   1.340       .  A
N584        N612   1.326       .  A
N584       Co602   2.090       .  S
H585        C608   1.081       .  S
H586        C603   1.081       .  S
N588       Co602   2.088       .  S
N589        N601   1.326       .  A
N589        N605   1.322       .  A
N589       Co598   2.088       .  S
C590        N594   1.350       .  A
C590        C604   1.458       .  S
C591        C610   1.456       .  S
C591        H595   1.081       .  S
N592        C603   1.341       .  A
N592       Co602   2.088       .  S
C596        N612   1.349       .  A
C596        C608   1.458       .  S
Co598      Cl609   2.454       .  S
N599        C610   1.347       .  A
Co602      Cl609   2.455       .  S
C613        C781   1.396       .  A
C613        C618   1.398       .  A
C613        H620   1.084       .  S
C614        C877   1.491       .  S
C614        C947   1.398       .  A
C614        C615   1.404   1_554  A
C615        C616   1.404       .  A
C615        N622   1.429       .  S
C616        C617   1.412   1_556  A
C616        H621   1.083       .  S
C617        C952   1.424       .  A
C618        C784   1.420       .  A
C618        N619   1.428       .  S
N619        O623   1.262       .  A
N619        O791   1.262       .  A
N622        O626   1.262       .  A
N622        O959   1.262       .  A
O624        N953   1.262       .  A
O625        N789   1.262       .  A
C627        C795   1.396       .  A
C627        C632   1.395       .  A
C627        H634   1.084       .  S
C628        C876   1.486       .  S
C628        C961   1.399       .  A
C628        C629   1.409   1_556  A
C629        C630   1.401       .  A
C629        N636   1.429       .  S
C630        C631   1.406   1_554  A
C630        H635   1.084       .  S
C631        C966   1.418       .  A
C632        C798   1.419       .  A
C632        N633   1.429       .  S
N633        O637   1.262       .  A
N633        O638   1.262       .  A
N636        O640   1.262       .  A
N636        O639   1.262       .  A
C641        C809   1.412       .  A
C641        C646   1.399       .  A
C641        H648   1.083       .  S
C642        C975   1.411       .  A
C642        C643   1.418   1_556  A
C643        C644   1.398       .  A
C643        N650   1.428       .  S
C644        C979   1.397   1_554  A
C644        H649   1.084       .  S
C645        C811   1.395       .  A
C645        C646   1.402       .  A
C646        N647   1.429       .  S
N647        O818   1.262       .  A
N647        O652   1.262       .  A
N650        O988   1.262       .  A
N650        O653   1.262       .  A
O651        N981   1.262       .  A
O654        N817   1.262       .  A
C655        C656   1.397       .  A
C655        C660   1.402       .  A
C655        H662   1.084       .  S
C656        C824   1.402       .  A
C657        C990   1.402       .  A
C657        C658   1.401       .  A
C657        N998   1.429       .  S
C658        C659   1.412       .  A
C658        H663   1.083       .  S
C659        C994   1.419   1_556  A
C660        C826   1.423       .  A
C660        N828   1.428       .  S
N661        C994   1.428       .  S
N661        O999   1.262       .  A
N661        O666   1.262       .  A
N664        C824   1.429       .  S
N664        O835   1.262       .  A
N664        O667   1.262       .  A
O665        N828   1.262       .  A
O668        N998   1.262       .  A
C669        N674   1.363       .  A
C669        C826   1.503       .  S
N670        C836   1.363       .  A
N670        C671   1.359       .  A
C671        N672   1.357       .  A
C671        C757   1.465       .  S
N672        C840   1.357       .  A
C673        N674   1.361       .  A
C673        C767   1.469       .  S
C675        N680   1.360       .  A
C675        C809   1.493       .  S
N676        C842   1.361       .  A
N676        C677   1.357       .  A
C677        N678   1.356       .  A
C677        C735   1.462       .  S
N678        C846   1.357       .  A
C679        N680   1.358       .  A
C679        C742   1.460       .  S
C681        N686   1.359       .  A
C681        C798   1.484       .  S
N682        C848   1.352       .  A
N682        C683   1.350       .  A
C683        N851   1.356       .  A
C683        C727   1.446       .  S
N684        C685   1.355       .  A
C685        N686   1.353       .  A
C685        C747   1.458       .  S
N687       C1694   1.355   1_455  A
N687        C691   1.355       .  A
N687        H719   1.026       .  S
N688        C696   1.350       .  A
N689       C1696   1.351   1_455  A
N689        C693   1.350       .  A
N689        H720   1.037       .  S
N690        C698   1.349       .  A
C691        C699   1.388       .  A
C691        C707   1.423       .  A
C692       N1689   1.353       .  A
C692        C708   1.412       .  A
C692        C700   1.386       .  A
C693        C701   1.385       .  A
C693        C710   1.409       .  A
C694       N1691   1.351       .  A
C694        C709   1.417       .  A
C694        C702   1.389       .  A
C695        C707   1.417       .  A
C696        C710   1.411       .  A
C696        C704   1.387       .  A
C697        C708   1.411       .  A
C698        C706   1.387       .  A
C698        C709   1.415       .  A
C699       C1702   1.375   1_455  A
C699        H711   1.082       .  S
C700       C1701   1.372       .  A
C700        H712   1.082       .  S
C701       C1704   1.374   1_455  A
C701        H713   1.082       .  S
C702       C1703   1.372       .  A
C702        H714   1.082       .  S
C703        C704   1.371       .  A
C704        H716   1.082       .  S
C705        C706   1.371       .  A
C706        H718   1.082       .  S
C707        C812   1.488       .  S
C708        C823   1.487       .  S
C709        C962   1.475       .  S
C710        C948   1.482       .  S
C721        N726   1.361       .  A
C721        C784   1.494       .  S
N722        C888   1.364       .  A
N722        C723   1.362       .  A
C723        N891   1.358       .  A
C723        C777   1.470       .  S
N724        C725   1.357       .  A
C725        N726   1.359       .  A
C725        C763   1.462       .  S
C727        N745   1.344       .  A
C727        C764   1.449       .  S
N728        N745   1.322       .  A
N728        N750   1.321       .  A
N728       Co765   2.074       .  S
C729        N754   1.345       .  A
C729        C767   1.462       .  S
C729        H774   1.081       .  S
H730        C771   1.081       .  S
C731        N755   1.344       .  A
C731        C735   1.458       .  S
C731        H760   1.081       .  S
Co732       N750   2.076       .  S
Co732       N740   2.084       .  S
Co732       N772   2.084       .  S
Co732       N748   2.082       .  S
Co732      Cl776   2.458       .  S
N733        C771   1.343       .  A
N733        N740   1.320       .  A
N733       Co734   2.093       .  S
Co734       N737   2.085       .  S
Co734       N754   2.101       .  S
Co734       N741   2.082       .  S
Co734      Cl776   2.451       .  S
C735        N773   1.346       .  A
N736        N743   1.320       .  A
N736        N766   1.325       .  A
N736       Co769   2.086       .  S
N737        N755   1.322       .  A
N737        N773   1.324       .  A
N738        C767   1.348       .  A
N738        N748   1.325       .  A
H739        C764   1.081       .  S
N740        N761   1.326       .  A
N741        N759   1.322       .  A
N741        N746   1.324       .  A
C742        N746   1.347       .  A
C742        C770   1.456       .  S
N743        C758   1.346       .  A
N743       Co765   2.102       .  S
C744        N772   1.342       .  A
C744        C747   1.453       .  S
C744        H778   1.081       .  S
C747        N768   1.348       .  A
N748        N754   1.320       .  A
N749        C775   1.343       .  A
N749        N751   1.320       .  A
N749       Co765   2.088       .  S
N750        C764   1.339       .  A
N751        N779   1.325       .  A
N751       Co769   2.088       .  S
H752        C775   1.081       .  S
H753        C770   1.081       .  S
N755       Co769   2.092       .  S
N756        N768   1.325       .  A
N756        N772   1.322       .  A
N756       Co765   2.090       .  S
C757        N761   1.348       .  A
C757        C771   1.457       .  S
C758        C777   1.463       .  S
C758        H762   1.081       .  S
N759        C770   1.342       .  A
N759       Co769   2.090       .  S
C763        N779   1.348       .  A
C763        C775   1.458       .  S
Co765      Cl776   2.453       .  S
N766        C777   1.348       .  A
Co769      Cl776   2.455       .  S
C780        C948   1.397       .  A
C780        C785   1.399       .  A
C780        H787   1.084       .  S
C781        C782   1.402       .  A
C782        C783   1.400       .  A
C782        N789   1.430       .  S
C783        C784   1.413       .  A
C783        H788   1.083       .  S
C785        C951   1.419       .  A
C785        N786   1.428       .  S
N786        O790   1.262       .  A
N786        O958   1.262       .  A
N789        O793   1.262       .  A
O792        N956   1.262       .  A
C794        C962   1.394       .  A
C794        C799   1.395       .  A
C794        H801   1.084       .  S
C795        C796   1.403       .  A
C796        C797   1.395       .  A
C796        N803   1.428       .  S
C797        C798   1.409       .  A
C797        H802   1.083       .  S
C799        C965   1.424       .  A
C799        N800   1.430       .  S
N800        O804   1.262       .  A
N800        O805   1.262       .  A
N803        O807   1.262       .  A
N803        O806   1.262       .  A
C808        C976   1.414       .  A
C808        C813   1.403       .  A
C808        H815   1.083       .  S
C809        C810   1.421       .  A
C810        C811   1.399       .  A
C810        N817   1.428       .  S
C811        H816   1.084       .  S
C812        C978   1.399       .  A
C812        C813   1.404       .  A
C813        N814   1.430       .  S
N814        O985   1.262       .  A
N814        O819   1.262       .  A
N817        O820   1.262       .  A
O821        N984   1.262       .  A
C822        C823   1.397       .  A
C822        C827   1.400       .  A
C822        H829   1.084       .  S
C823        C991   1.406       .  A
C824        C825   1.402       .  A
C825        C826   1.414       .  A
C825        H830   1.083       .  S
C827        C993   1.419       .  A
C827        N995   1.427       .  S
N828        O833   1.262       .  A
N831        C991   1.430       .  S
N831       O1002   1.262       .  A
N831        O834   1.262       .  A
O832        N995   1.262       .  A
C836        N841   1.363       .  A
C836        C993   1.497       .  S
N837        C838   1.357       .  A
C838        N839   1.357       .  A
C838        C924   1.463       .  S
C840        N841   1.360       .  A
C840        C934   1.467       .  S
C842        N847   1.364       .  A
C842        C976   1.497       .  S
N843        C844   1.358       .  A
C844        N845   1.357   1_556  A
C844        C902   1.465       .  S
C846        N847   1.362       .  A
C846        C909   1.468       .  S
C848        N853   1.365       .  A
C848        C965   1.486       .  S
N849        C850   1.356       .  A
C850        C894   1.456       .  S
N851        C852   1.356       .  A
C852        N853   1.360       .  A
C852        C914   1.466       .  S
N854       C1861   1.353   1_456  A
N854        C858   1.351   1_556  A
N854        H886   1.038       .  S
N855        C863   1.353       .  A
N856       C1863   1.350   1_455  A
N856        C860   1.354       .  A
N856        H887   1.034   1_554  S
N857        C865   1.351       .  A
C858        C866   1.388       .  A
C858        C874   1.415   1_554  A
C859       N1856   1.352       .  A
C859        C875   1.412       .  A
C859        C867   1.386   1_556  A
C860        C868   1.386       .  A
C860        C877   1.415       .  A
C861       N1858   1.353       .  A
C861        C876   1.416       .  A
C861        C869   1.387   1_556  A
C862        C874   1.410       .  A
C863        C877   1.414   1_556  A
C863        C871   1.386       .  A
C864        C875   1.406       .  A
C865        C873   1.386       .  A
C865        C876   1.412       .  A
C866       C1869   1.379   1_455  A
C866        H878   1.082       .  S
C867       C1868   1.375       .  A
C867        H879   1.082       .  S
C868       C1871   1.376   1_455  A
C868        H880   1.082       .  S
C869       C1870   1.376       .  A
C869        H881   1.082       .  S
C870        C871   1.372       .  A
C871        H883   1.082       .  S
C872        C873   1.373       .  A
C873        H885   1.082       .  S
C874        C979   1.479       .  S
C875        C990   1.477       .  S
C888        N893   1.358       .  A
C888        C951   1.487       .  S
N889        C890   1.363       .  A
C890        C944   1.474       .  S
N891        C892   1.358       .  A
C892        N893   1.355       .  A
C892        C930   1.461       .  S
C894        N912   1.349       .  A
C894        C931   1.451       .  S
N895        N912   1.325       .  A
N895        N917   1.321       .  A
N895       Co932   2.085       .  S
C896        N921   1.343       .  A
C896        C934   1.459       .  S
C896        H941   1.081       .  S
H897        C938   1.081       .  S
C898        N922   1.345       .  A
C898        C902   1.460       .  S
C898        H927   1.081       .  S
Co899       N917   2.082       .  S
Co899       N907   2.088       .  S
Co899       N939   2.090       .  S
Co899       N915   2.088       .  S
Co899      Cl943   2.456       .  S
N900        C938   1.342       .  A
N900        N907   1.321       .  A
N900       Co901   2.089       .  S
Co901       N904   2.086       .  S
Co901       N921   2.095       .  S
Co901       N908   2.088       .  S
Co901      Cl943   2.457       .  S
C902        N940   1.346       .  A
N903        N910   1.321       .  A
N903        N933   1.327       .  A
N903       Co936   2.094       .  S
N904        N922   1.322       .  A
N904        N940   1.325       .  A
N905        C934   1.349       .  A
N905        N915   1.326       .  A
H906        C931   1.081       .  S
N907        N928   1.326       .  A
N908        N926   1.321       .  A
N908        N913   1.326       .  A
C909        N913   1.349       .  A
C909        C937   1.459       .  S
N910        C925   1.346       .  A
N910       Co932   2.103       .  S
C911        N939   1.343       .  A
C911        C914   1.457       .  S
C911        H945   1.081       .  S
C914        N935   1.349       .  A
N915        N921   1.321       .  A
N916        C942   1.341       .  A
N916        N918   1.322       .  A
N916       Co932   2.086       .  S
N917        C931   1.339       .  A
N918        N946   1.326       .  A
N918       Co936   2.093       .  S
H919        C942   1.081       .  S
H920        C937   1.081       .  S
N922       Co936   2.099       .  S
N923        N935   1.327       .  A
N923        N939   1.321       .  A
N923       Co932   2.095       .  S
C924        N928   1.348       .  A
C924        C938   1.455       .  S
C925        C944   1.462       .  S
C925        H929   1.081       .  S
N926        C937   1.343       .  A
N926       Co936   2.098       .  S
C930        N946   1.349       .  A
C930        C942   1.453       .  S
Co932      Cl943   2.457       .  S
N933        C944   1.350       .  A
Co936      Cl943   2.458       .  S
C947        C952   1.405       .  A
C947        H954   1.084       .  S
C948        C949   1.407       .  A
C949        C950   1.401       .  A
C949        N956   1.430       .  S
C950        C951   1.407       .  A
C950        H955   1.083       .  S
C952        N953   1.428       .  S
N953        O957   1.262       .  A
N956        O960   1.262       .  A
C961        C966   1.398       .  A
C961        H968   1.084       .  S
C962        C963   1.404       .  A
C963        C964   1.395       .  A
C963        N970   1.427       .  S
C964        C965   1.406       .  A
C964        H969   1.083       .  S
C966        N967   1.429       .  S
N967        O971   1.262       .  A
N967        O972   1.262       .  A
N970        O974   1.262       .  A
N970        O973   1.262       .  A
C975        C980   1.401       .  A
C975        H982   1.083       .  S
C976        C977   1.417       .  A
C977        C978   1.400       .  A
C977        N984   1.428       .  S
C978        H983   1.084       .  S
C979        C980   1.403       .  A
C980        N981   1.430       .  S
N981        O986   1.262       .  A
N984        O987   1.262       .  A
C989        C990   1.395   1_554  A
C989        C994   1.397       .  A
C989        H996   1.084       .  S
C991        C992   1.405       .  A
C992        C993   1.412       .  A
C992        H997   1.083       .  S
N995       O1000   1.262       .  A
N998       O1001   1.262       .  A
C1003      N1338   1.362       .  A
C1003      N1008   1.359   1_556  A
C1003      C1160   1.490       .  S
N1004      C1170   1.369       .  A
N1004      C1005   1.366       .  A
C1005      N1006   1.358       .  A
C1005      C1091   1.478       .  S
N1006      C1174   1.357       .  A
C1007      N1340   1.358   1_554  A
C1007      N1008   1.357       .  A
C1007      C1101   1.459       .  S
C1009      N1344   1.359       .  A
C1009      N1014   1.361   1_556  A
C1009      C1143   1.489       .  S
N1010      C1176   1.361       .  A
N1010      C1011   1.358       .  A
C1011      N1012   1.357       .  A
C1011      C1069   1.463       .  S
N1012      C1180   1.357       .  A
C1013      N1346   1.358   1_554  A
C1013      N1014   1.359       .  A
C1013      C1076   1.463       .  S
C1015      N1350   1.359       .  A
C1015      N1020   1.362   1_556  A
C1015      C1132   1.488       .  S
N1016      C1182   1.358       .  A
N1016      C1017   1.357       .  A
C1017      N1185   1.358       .  A
C1017      C1061   1.458       .  S
N1018      C1351   1.358       .  A
N1018      C1019   1.357   1_556  A
C1019      N1020   1.357       .  A
C1019      C1081   1.465       .  S
N1021      C1025   1.354       .  A
N1021      H1053   1.016       .  S
N1022      C1530   1.349   1_545  A
N1022      C1030   1.350       .  A
N1023      C1027   1.352       .  A
N1023      H1054   1.036       .  S
N1024      C1532   1.352   1_545  A
N1024      C1032   1.351       .  A
C1025      C1033   1.387       .  A
C1025      C1041   1.415       .  A
C1026      C1042   1.416       .  A
C1026      C1034   1.386   1_655  A
C1027      C1035   1.386       .  A
C1027      C1044   1.411       .  A
C1028      C1043   1.417       .  A
C1028      C1036   1.387       .  A
C1029      N1523   1.346       .  A
C1029      C1041   1.408       .  A
C1029      C1538   1.386       .  A
C1030      C1044   1.411       .  A
C1030      C1038   1.386       .  A
C1031      N1525   1.351       .  A
C1031      C1540   1.386       .  A
C1031      C1042   1.415       .  A
C1032      C1040   1.386       .  A
C1032      C1043   1.414       .  A
C1033      H1045   1.082       .  S
C1034      H1046   1.082   1_455  S
C1035      H1047   1.082       .  S
C1036      H1048   1.082       .  S
C1037      C1530   1.387   1_545  A
C1037      C1038   1.373       .  A
C1037      H1550   1.082   1_545  S
C1038      H1050   1.082       .  S
C1039      C1532   1.386   1_545  A
C1039      C1040   1.371       .  A
C1039      H1552   1.082   1_545  S
C1040      H1052   1.082       .  S
C1041      C1146   1.474       .  S
C1042      C1157   1.488       .  S
C1043      C1296   1.486       .  S
C1044      C1282   1.482       .  S
H1049      C1538   1.082       .  S
H1051      C1540   1.082       .  S
C1055      N1390   1.362       .  A
C1055      N1060   1.364   1_556  A
C1055      C1118   1.498       .  S
N1056      C1222   1.361       .  A
N1056      C1057   1.356       .  A
C1057      N1225   1.358       .  A
C1057      C1111   1.464       .  S
N1058      C1391   1.359       .  A
N1058      C1059   1.359   1_556  A
C1059      N1060   1.361       .  A
C1059      C1097   1.474       .  S
C1061      N1079   1.347       .  A
C1061      C1098   1.455       .  S
N1062      N1079   1.324       .  A
N1062      N1084   1.322       .  A
N1062     Co1099   2.085       .  S
C1063      N1088   1.343       .  A
C1063      C1101   1.456       .  S
C1063      H1108   1.081       .  S
H1064      C1105   1.081       .  S
C1065      N1089   1.345       .  A
C1065      C1069   1.459       .  S
C1065      H1094   1.081       .  S
Co1066     N1084   2.088       .  S
Co1066     N1074   2.091       .  S
Co1066     N1106   2.096       .  S
Co1066     N1082   2.079       .  S
Co1066    Cl1110   2.457       .  S
N1067      C1105   1.348       .  A
N1067      N1074   1.321       .  A
N1067     Co1068   2.111       .  S
Co1068     N1071   2.080       .  S
Co1068     N1088   2.089       .  S
Co1068     N1075   2.093       .  S
Co1068    Cl1110   2.456       .  S
C1069      N1107   1.346       .  A
N1070      N1077   1.320       .  A
N1070      N1100   1.325       .  A
N1070     Co1103   2.081       .  S
N1071      N1089   1.322       .  A
N1071      N1107   1.324       .  A
N1072      C1101   1.347       .  A
N1072      N1082   1.323       .  A
H1073      C1098   1.081       .  S
N1074      N1095   1.327       .  A
N1075      N1093   1.321       .  A
N1075      N1080   1.326       .  A
C1076      N1080   1.349       .  A
C1076      C1104   1.455       .  S
N1077      C1092   1.344       .  A
N1077     Co1099   2.096       .  S
C1078      N1106   1.344       .  A
C1078      C1081   1.457       .  S
C1078      H1112   1.081       .  S
C1081      N1102   1.349       .  A
N1082      N1088   1.321       .  A
N1083      C1109   1.345       .  A
N1083      N1085   1.321       .  A
N1083     Co1099   2.100       .  S
N1084      C1098   1.342       .  A
N1085      N1113   1.328       .  A
N1085     Co1103   2.098       .  S
H1086      C1109   1.081       .  S
H1087      C1104   1.081       .  S
N1089     Co1103   2.102       .  S
N1090      N1102   1.326       .  A
N1090      N1106   1.321       .  A
N1090     Co1099   2.086       .  S
C1091      N1095   1.350       .  A
C1091      C1105   1.466       .  S
C1092      C1111   1.458       .  S
C1092      H1096   1.081       .  S
N1093      C1104   1.342       .  A
N1093     Co1103   2.086       .  S
C1097      N1113   1.351       .  A
C1097      C1109   1.460       .  S
Co1099    Cl1110   2.457       .  S
N1100      C1111   1.347       .  A
Co1103    Cl1110   2.458       .  S
C1114      C1282   1.398       .  A
C1114      C1119   1.400       .  A
C1114      H1121   1.084       .  S
C1115      C1378   1.487       .  S
C1115      C1448   1.396   1_556  A
C1115      C1116   1.406       .  A
C1116      C1117   1.406       .  A
C1116      N1123   1.430       .  S
C1117      C1118   1.413       .  A
C1117      H1122   1.083       .  S
C1118      C1453   1.418   1_556  A
C1119      C1285   1.419       .  A
C1119      N1120   1.428       .  S
N1120      O1124   1.262       .  A
N1120      O1292   1.262       .  A
N1123      O1127   1.262       .  A
N1123      O1460   1.262       .  A
O1125      N1454   1.262       .  A
O1126      N1290   1.262       .  A
C1128      C1296   1.399       .  A
C1128      C1133   1.402       .  A
C1128      H1135   1.084       .  S
C1129      C1377   1.480       .  S
C1129      C1462   1.398   1_554  A
C1129      C1130   1.405       .  A
C1130      C1131   1.398       .  A
C1130      N1137   1.428       .  S
C1131      C1132   1.408   1_554  A
C1131      H1136   1.083       .  S
C1132      C1467   1.418       .  A
C1133      C1299   1.421       .  A
C1133      N1134   1.429       .  S
N1134      O1138   1.262       .  A
N1134      O1139   1.262       .  A
N1137      O1141   1.262       .  A
N1137      O1140   1.262       .  A
C1142      C1310   1.413       .  A
C1142      C1147   1.398       .  A
C1142      H1149   1.083       .  S
C1143      C1476   1.412       .  A
C1143      C1144   1.418   1_556  A
C1144      C1145   1.397       .  A
C1144      N1151   1.428       .  S
C1145      C1480   1.396   1_554  A
C1145      H1150   1.084       .  S
C1146      C1312   1.394       .  A
C1146      C1147   1.400       .  A
C1147      N1148   1.430       .  S
N1148      O1319   1.262       .  A
N1148      O1153   1.262       .  A
N1151      O1489   1.262       .  A
N1151      O1154   1.262       .  A
O1152      N1482   1.262       .  A
O1155      N1318   1.262       .  A
C1156      C1157   1.396       .  A
C1156      C1161   1.403       .  A
C1156      H1163   1.084       .  S
C1157      C1325   1.404       .  A
C1158      C1491   1.408       .  A
C1158      C1159   1.401       .  A
C1158      N1499   1.428       .  S
C1159      C1160   1.407       .  A
C1159      H1164   1.084       .  S
C1160      C1495   1.417   1_556  A
C1161      C1327   1.426       .  A
C1161      N1329   1.429       .  S
N1162      C1495   1.429       .  S
N1162      O1500   1.262       .  A
N1162      O1167   1.262       .  A
N1165      C1325   1.430       .  S
N1165      O1336   1.262       .  A
N1165      O1168   1.262       .  A
O1166      N1329   1.262       .  A
O1169      N1499   1.262       .  A
C1170      N1175   1.359       .  A
C1170      C1327   1.505       .  S
N1171      C1337   1.362       .  A
N1171      C1172   1.359       .  A
C1172      N1173   1.359       .  A
C1172      C1258   1.470       .  S
N1173      C1341   1.359       .  A
C1174      N1175   1.357       .  A
C1174      C1268   1.465       .  S
C1176      N1181   1.358       .  A
C1176      C1310   1.492       .  S
N1177      C1343   1.362       .  A
N1177      C1178   1.358       .  A
C1178      N1179   1.357       .  A
C1178      C1236   1.463       .  S
N1179      C1347   1.357       .  A
C1180      N1181   1.356       .  A
C1180      C1243   1.459       .  S
C1182      N1187   1.364       .  A
C1182      C1299   1.492       .  S
N1183      C1349   1.359       .  A
N1183      C1184   1.359       .  A
C1184      N1352   1.358       .  A
C1184      C1228   1.458       .  S
N1185      C1186   1.357       .  A
C1186      N1187   1.359       .  A
C1186      C1248   1.468       .  S
N1188      C1192   1.352       .  A
N1188      H1220   1.030       .  S
N1189      C1697   1.349   1_545  A
N1189      C1197   1.351       .  A
N1190      C1194   1.354       .  A
N1190      H1221   1.033       .  S
N1191      C1699   1.350   1_545  A
N1191      C1199   1.351       .  A
C1192      C1200   1.389       .  A
C1192      C1208   1.423       .  A
C1193      C1209   1.415       .  A
C1193      C1201   1.387       .  A
C1194      C1202   1.387       .  A
C1194      C1211   1.417       .  A
C1195      C1210   1.419       .  A
C1195      C1203   1.388       .  A
C1196      N1690   1.349       .  A
C1196      C1208   1.416       .  A
C1196      C1705   1.388       .  A
C1197      C1211   1.414       .  A
C1197      C1205   1.386       .  A
C1198      N1692   1.349       .  A
C1198      C1707   1.387       .  A
C1198      C1209   1.411       .  A
C1199      C1207   1.386       .  A
C1199      C1210   1.414       .  A
C1200      H1212   1.082       .  S
C1201      H1213   1.082       .  S
C1202      H1214   1.082       .  S
C1203      H1215   1.082       .  S
C1204      C1697   1.387       .  A
C1204      C1205   1.373   1_565  A
C1204      H1717   1.082       .  S
C1205      H1217   1.082       .  S
C1206      C1699   1.387   1_545  A
C1206      C1207   1.370       .  A
C1206      H1719   1.082   1_545  S
C1207      H1219   1.082       .  S
C1208      C1313   1.479       .  S
C1209      C1324   1.483       .  S
C1210      C1463   1.485       .  S
C1211      C1449   1.489       .  S
H1216      C1705   1.082       .  S
H1218      C1707   1.082       .  S
C1222      N1227   1.360       .  A
C1222      C1285   1.490       .  S
N1223      C1389   1.363       .  A
N1223      C1224   1.360       .  A
C1224      N1392   1.357       .  A
C1224      C1278   1.466       .  S
N1225      C1226   1.358       .  A
C1226      N1227   1.359       .  A
C1226      C1264   1.463       .  S
C1228      N1246   1.345       .  A
C1228      C1265   1.458       .  S
N1229      N1246   1.322       .  A
N1229      N1251   1.321       .  A
N1229     Co1266   2.078       .  S
C1230      N1255   1.346       .  A
C1230      C1268   1.461       .  S
C1230      H1275   1.081       .  S
H1231      C1272   1.081       .  S
C1232      N1256   1.344       .  A
C1232      C1236   1.458       .  S
C1232      H1261   1.081       .  S
Co1233     N1251   2.092       .  S
Co1233     N1241   2.093       .  S
Co1233     N1273   2.110       .  S
Co1233     N1249   2.080       .  S
Co1233    Cl1277   2.456       .  S
N1234      C1272   1.346       .  A
N1234      N1241   1.321       .  A
N1234     Co1235   2.097       .  S
Co1235     N1238   2.086       .  S
Co1235     N1255   2.102       .  S
Co1235     N1242   2.081       .  S
Co1235    Cl1277   2.456       .  S
C1236      N1274   1.347       .  A
N1237      N1244   1.320       .  A
N1237      N1267   1.325       .  A
N1237     Co1270   2.085       .  S
N1238      N1256   1.321       .  A
N1238      N1274   1.324       .  A
N1239      C1268   1.346       .  A
N1239      N1249   1.323       .  A
H1240      C1265   1.081       .  S
N1241      N1262   1.326       .  A
N1242      N1260   1.321       .  A
N1242      N1247   1.323       .  A
C1243      N1247   1.346       .  A
C1243      C1271   1.457       .  S
N1244      C1259   1.343       .  A
N1244     Co1266   2.093       .  S
C1245      N1273   1.348       .  A
C1245      C1248   1.465       .  S
C1245      H1279   1.081       .  S
C1248      N1269   1.345       .  A
N1249      N1255   1.321       .  A
N1250      C1276   1.345       .  A
N1250      N1252   1.321       .  A
N1250     Co1266   2.095       .  S
N1251      C1265   1.344       .  A
N1252      N1280   1.323       .  A
N1252     Co1270   2.081       .  S
H1253      C1276   1.081       .  S
H1254      C1271   1.081       .  S
N1256     Co1270   2.092       .  S
N1257      N1269   1.323       .  A
N1257      N1273   1.321       .  A
N1257     Co1266   2.076       .  S
C1258      N1262   1.349       .  A
C1258      C1272   1.460       .  S
C1259      C1278   1.458       .  S
C1259      H1263   1.081       .  S
N1260      C1271   1.343       .  A
N1260     Co1270   2.092       .  S
C1264      N1280   1.346       .  A
C1264      C1276   1.460       .  S
Co1266    Cl1277   2.454       .  S
N1267      C1278   1.349       .  A
Co1270    Cl1277   2.455       .  S
C1281      C1449   1.397       .  A
C1281      C1286   1.402       .  A
C1281      H1288   1.084       .  S
C1282      C1283   1.404       .  A
C1283      C1284   1.399       .  A
C1283      N1290   1.430       .  S
C1284      C1285   1.410       .  A
C1284      H1289   1.083       .  S
C1286      C1452   1.420       .  A
C1286      N1287   1.428       .  S
N1287      O1291   1.262       .  A
N1287      O1459   1.262       .  A
N1290      O1294   1.262       .  A
O1293      N1457   1.262       .  A
C1295      C1463   1.402       .  A
C1295      C1300   1.401       .  A
C1295      H1302   1.084       .  S
C1296      C1297   1.405       .  A
C1297      C1298   1.398       .  A
C1297      N1304   1.428       .  S
C1298      C1299   1.407       .  A
C1298      H1303   1.083       .  S
C1300      C1466   1.414       .  A
C1300      N1301   1.429       .  S
N1301      O1305   1.262       .  A
N1301      O1306   1.262       .  A
N1304      O1308   1.262       .  A
N1304      O1307   1.262       .  A
C1309      C1477   1.411       .  A
C1309      C1314   1.398       .  A
C1309      H1316   1.083       .  S
C1310      C1311   1.422       .  A
C1311      C1312   1.396       .  A
C1311      N1318   1.428       .  S
C1312      H1317   1.084       .  S
C1313      C1479   1.396       .  A
C1313      C1314   1.402       .  A
C1314      N1315   1.430       .  S
N1315      O1486   1.262       .  A
N1315      O1320   1.262       .  A
N1318      O1321   1.262       .  A
O1322      N1485   1.262       .  A
C1323      C1324   1.396       .  A
C1323      C1328   1.398       .  A
C1323      H1330   1.084       .  S
C1324      C1492   1.403       .  A
C1325      C1326   1.405       .  A
C1326      C1327   1.412       .  A
C1326      H1331   1.083       .  S
C1328      C1494   1.420       .  A
C1328      N1496   1.427       .  S
N1329      O1334   1.262       .  A
N1332      C1492   1.430       .  S
N1332      O1503   1.262       .  A
N1332      O1335   1.262       .  A
O1333      N1496   1.262       .  A
C1337      N1342   1.363       .  A
C1337      C1494   1.499       .  S
N1338      C1339   1.358       .  A
C1339      N1340   1.357       .  A
C1339      C1425   1.465       .  S
C1341      N1342   1.361       .  A
C1341      C1435   1.472       .  S
C1343      N1348   1.359       .  A
C1343      C1477   1.494       .  S
N1344      C1345   1.355       .  A
C1345      N1346   1.357       .  A
C1345      C1403   1.460       .  S
C1347      N1348   1.358       .  A
C1347      C1410   1.460       .  S
C1349      N1354   1.357       .  A
C1349      C1466   1.481       .  S
N1350      C1351   1.358       .  A
C1351      C1395   1.461       .  S
N1352      C1353   1.357       .  A
C1353      N1354   1.353       .  A
C1353      C1415   1.456       .  S
N1355      C1359   1.351       .  A
N1355      H1387   1.037       .  S
N1356      C1864   1.351   1_545  A
N1356      C1364   1.351       .  A
N1357      C1361   1.352       .  A
N1357      H1388   1.036       .  S
N1358      C1866   1.350   1_544  A
N1358      C1366   1.350   1_554  A
C1359      C1367   1.388       .  A
C1359      C1375   1.412       .  A
C1360      C1376   1.414       .  A
C1360      C1368   1.385   1_556  A
C1361      C1369   1.387   1_556  A
C1361      C1378   1.415       .  A
C1362      C1377   1.412       .  A
C1362      C1370   1.387       .  A
C1363      N1857   1.348       .  A
C1363      C1375   1.408       .  A
C1363      C1872   1.386       .  A
C1364      C1378   1.415       .  A
C1364      C1372   1.387       .  A
C1365      N1859   1.352       .  A
C1365      C1874   1.385       .  A
C1365      C1376   1.412       .  A
C1366      C1374   1.386       .  A
C1366      C1377   1.410   1_556  A
C1367      H1379   1.082   1_556  S
C1368      H1380   1.082       .  S
C1369      H1381   1.082       .  S
C1370      H1382   1.082       .  S
C1371      C1864   1.386       .  A
C1371      C1372   1.372   1_565  A
C1371      H1884   1.082       .  S
C1372      H1384   1.082       .  S
C1373      C1866   1.386   1_545  A
C1373      C1374   1.373       .  A
C1373      H1886   1.082   1_545  S
C1374      H1386   1.082       .  S
C1375      C1480   1.477       .  S
C1376      C1491   1.490       .  S
H1383      C1872   1.083       .  S
H1385      C1874   1.082       .  S
C1389      N1394   1.364       .  A
C1389      C1452   1.501       .  S
N1390      C1391   1.360       .  A
C1391      C1445   1.469       .  S
N1392      C1393   1.357       .  A
C1393      N1394   1.361       .  A
C1393      C1431   1.470       .  S
C1395      N1413   1.347       .  A
C1395      C1432   1.457       .  S
N1396      N1413   1.324       .  A
N1396      N1418   1.322       .  A
N1396     Co1433   2.083       .  S
C1397      N1422   1.346       .  A
C1397      C1435   1.461       .  S
C1397      H1442   1.081       .  S
H1398      C1439   1.081       .  S
C1399      N1423   1.345       .  A
C1399      C1403   1.458       .  S
C1399      H1428   1.081       .  S
Co1400     N1418   2.094       .  S
Co1400     N1408   2.080       .  S
Co1400     N1440   2.086       .  S
Co1400     N1416   2.091       .  S
Co1400    Cl1444   2.458       .  S
N1401      C1439   1.345       .  A
N1401      N1408   1.320       .  A
N1401     Co1402   2.097       .  S
Co1402     N1405   2.079       .  S
Co1402     N1422   2.099       .  S
Co1402     N1409   2.081       .  S
Co1402    Cl1444   2.453       .  S
C1403      N1441   1.345       .  A
N1404      N1411   1.320       .  A
N1404      N1434   1.324       .  A
N1404     Co1437   2.082       .  S
N1405      N1423   1.321       .  A
N1405      N1441   1.323       .  A
N1406      C1435   1.349       .  A
N1406      N1416   1.326       .  A
H1407      C1432   1.081       .  S
N1408      N1429   1.324       .  A
N1409      N1427   1.321       .  A
N1409      N1414   1.323       .  A
C1410      N1414   1.346       .  A
C1410      C1438   1.458       .  S
N1411      C1426   1.347       .  A
N1411     Co1433   2.102       .  S
C1412      N1440   1.343       .  A
C1412      C1415   1.455       .  S
C1412      H1446   1.081       .  S
C1415      N1436   1.346       .  A
N1416      N1422   1.320       .  A
N1417      C1443   1.346       .  A
N1417      N1419   1.321       .  A
N1417     Co1433   2.103       .  S
N1418      C1432   1.344       .  A
N1419      N1447   1.326       .  A
N1419     Co1437   2.087       .  S
H1420      C1443   1.081       .  S
H1421      C1438   1.081       .  S
N1423     Co1437   2.094       .  S
N1424      N1436   1.322       .  A
N1424      N1440   1.322       .  A
N1424     Co1433   2.083       .  S
C1425      N1429   1.347       .  A
C1425      C1439   1.460       .  S
C1426      C1445   1.463       .  S
C1426      H1430   1.081       .  S
N1427      C1438   1.344       .  A
N1427     Co1437   2.093       .  S
C1431      N1447   1.348       .  A
C1431      C1443   1.462       .  S
Co1433    Cl1444   2.453       .  S
N1434      C1445   1.346       .  A
Co1437    Cl1444   2.457       .  S
C1448      C1453   1.400       .  A
C1448      H1455   1.084       .  S
C1449      C1450   1.405       .  A
C1450      C1451   1.405       .  A
C1450      N1457   1.430       .  S
C1451      C1452   1.413       .  A
C1451      H1456   1.083       .  S
C1453      N1454   1.427       .  S
N1454      O1458   1.262       .  A
N1457      O1461   1.262       .  A
C1462      C1467   1.398       .  A
C1462      H1469   1.084       .  S
C1463      C1464   1.406       .  A
C1464      C1465   1.395       .  A
C1464      N1471   1.428       .  S
C1465      C1466   1.405       .  A
C1465      H1470   1.084       .  S
C1467      N1468   1.428       .  S
N1468      O1472   1.262       .  A
N1468      O1473   1.262       .  A
N1471      O1475   1.262       .  A
N1471      O1474   1.262       .  A
C1476      C1481   1.399       .  A
C1476      H1483   1.083       .  S
C1477      C1478   1.421       .  A
C1478      C1479   1.399       .  A
C1478      N1485   1.429       .  S
C1479      H1484   1.084       .  S
C1480      C1481   1.402       .  A
C1481      N1482   1.430       .  S
N1482      O1487   1.262       .  A
N1485      O1488   1.262       .  A
C1490      C1491   1.400   1_554  A
C1490      C1495   1.400       .  A
C1490      H1497   1.084       .  S
C1492      C1493   1.405       .  A
C1493      C1494   1.414       .  A
C1493      H1498   1.083       .  S
N1496      O1501   1.262       .  A
N1499      O1502   1.262       .  A
C1504      N1839   1.364   1_554  A
C1504      N1509   1.361       .  A
C1504      C1661   1.496       .  S
N1505      C1671   1.363       .  A
N1505      C1506   1.360       .  A
C1506      N1507   1.356       .  A
C1506      C1592   1.463       .  S
N1507      C1675   1.356       .  A
C1508      N1841   1.357   1_554  A
C1508      N1509   1.358       .  A
C1508      C1602   1.463       .  S
C1510      N1845   1.364       .  A
C1510      N1515   1.362   1_556  A
C1510      C1644   1.501       .  S
N1511      C1677   1.362       .  A
N1511      C1512   1.357       .  A
C1512      N1513   1.356       .  A
C1512      C1570   1.465       .  S
N1513      C1681   1.357       .  A
C1514      N1847   1.359   1_554  A
C1514      N1515   1.359       .  A
C1514      C1577   1.470       .  S
C1516      N1851   1.357       .  A
C1516      N1521   1.361   1_556  A
C1516      C1633   1.487       .  S
N1517      C1683   1.359       .  A
N1517      C1518   1.358       .  A
C1518      N1686   1.358       .  A
C1518      C1562   1.461       .  S
N1519      C1852   1.356       .  A
N1519      C1520   1.356   1_556  A
C1520      N1521   1.356       .  A
C1520      C1582   1.460       .  S
N1522      C1526   1.352       .  A
N1522      H1554   1.034       .  S
N1523      C1531   1.348       .  A
N1524      C1528   1.355       .  A
N1524      H1555   1.001       .  S
N1525      C1533   1.351       .  A
C1526      C1534   1.388       .  A
C1526      C1542   1.416       .  A
C1527      C1543   1.414       .  A
C1527      C1535   1.387       .  A
C1528      C1536   1.386       .  A
C1528      C1545   1.417       .  A
C1529      C1544   1.420       .  A
C1529      C1537   1.389   1_655  A
C1530      C1542   1.412       .  A
C1531      C1545   1.413       .  A
C1531      C1539   1.388       .  A
C1532      C1543   1.414       .  A
C1533      C1541   1.386       .  A
C1533      C1544   1.415       .  A
C1534      H1546   1.082       .  S
C1535      H1547   1.082       .  S
C1536      H1548   1.082       .  S
C1537      H1549   1.082   1_455  S
C1538      C1539   1.368       .  A
C1539      H1551   1.082       .  S
C1540      C1541   1.370       .  A
C1541      H1553   1.082       .  S
C1542      C1647   1.480       .  S
C1543      C1658   1.485       .  S
C1544      C1797   1.487       .  S
C1545      C1783   1.481       .  S
C1556      N1891   1.362       .  A
C1556      N1561   1.362   1_556  A
C1556      C1619   1.494       .  S
N1557      C1723   1.361       .  A
N1557      C1558   1.356       .  A
C1558      N1726   1.357       .  A
C1558      C1612   1.465       .  S
N1559      C1892   1.359       .  A
N1559      C1560   1.359   1_556  A
C1560      N1561   1.360       .  A
C1560      C1598   1.469       .  S
C1562      N1580   1.348       .  A
C1562      C1599   1.455       .  S
N1563      N1580   1.325       .  A
N1563      N1585   1.321       .  A
N1563     Co1600   2.086       .  S
C1564      N1589   1.343       .  A
C1564      C1602   1.458       .  S
C1564      H1609   1.081       .  S
H1565      C1606   1.081       .  S
C1566      N1590   1.346       .  A
C1566      C1570   1.460       .  S
C1566      H1595   1.081       .  S
Co1567     N1585   2.089       .  S
Co1567     N1575   2.080       .  S
Co1567     N1607   2.087       .  S
Co1567     N1583   2.081       .  S
Co1567    Cl1611   2.454       .  S
N1568      C1606   1.344       .  A
N1568      N1575   1.321       .  A
N1568     Co1569   2.096       .  S
Co1569     N1572   2.083       .  S
Co1569     N1589   2.093       .  S
Co1569     N1576   2.086       .  S
Co1569    Cl1611   2.455       .  S
C1570      N1608   1.346       .  A
N1571      N1578   1.321       .  A
N1571      N1601   1.326       .  A
N1571     Co1604   2.093       .  S
N1572      N1590   1.321       .  A
N1572      N1608   1.324       .  A
N1573      C1602   1.347       .  A
N1573      N1583   1.324       .  A
H1574      C1599   1.081       .  S
N1575      N1596   1.324       .  A
N1576      N1594   1.321       .  A
N1576      N1581   1.325       .  A
C1577      N1581   1.347       .  A
C1577      C1605   1.462       .  S
N1578      C1593   1.343       .  A
N1578     Co1600   2.091       .  S
C1579      N1607   1.341       .  A
C1579      C1582   1.454       .  S
C1579      H1613   1.081       .  S
C1582      N1603   1.348       .  A
N1583      N1589   1.321       .  A
N1584      C1610   1.344       .  A
N1584      N1586   1.321       .  A
N1584     Co1600   2.096       .  S
N1585      C1599   1.342       .  A
N1586      N1614   1.327       .  A
N1586     Co1604   2.093       .  S
H1587      C1610   1.081       .  S
H1588      C1605   1.081       .  S
N1590     Co1604   2.101       .  S
N1591      N1603   1.325       .  A
N1591      N1607   1.321       .  A
N1591     Co1600   2.084       .  S
C1592      N1596   1.347       .  A
C1592      C1606   1.460       .  S
C1593      C1612   1.456       .  S
C1593      H1597   1.081       .  S
N1594      C1605   1.347       .  A
N1594     Co1604   2.103       .  S
C1598      N1614   1.350       .  A
C1598      C1610   1.458       .  S
Co1600    Cl1611   2.457       .  S
N1601      C1612   1.349       .  A
Co1604    Cl1611   2.458       .  S
C1615      C1783   1.397       .  A
C1615      C1620   1.399       .  A
C1615      H1622   1.084       .  S
C1616      C1879   1.483       .  S
C1616      C1949   1.397   1_556  A
C1616      C1617   1.404       .  A
C1617      C1618   1.403       .  A
C1617      N1624   1.429       .  S
C1618      C1619   1.412       .  A
C1618      H1623   1.083       .  S
C1619      C1954   1.418   1_556  A
C1620      C1786   1.420       .  A
C1620      N1621   1.428       .  S
N1621      O1625   1.262       .  A
N1621      O1793   1.262       .  A
N1624      O1628   1.262       .  A
N1624      O1961   1.262       .  A
O1626      N1955   1.262       .  A
O1627      N1791   1.262       .  A
C1629      C1797   1.398       .  A
C1629      C1634   1.401       .  A
C1629      H1636   1.084       .  S
C1630      C1878   1.478       .  S
C1630      C1963   1.397   1_554  A
C1630      C1631   1.404       .  A
C1631      C1632   1.397       .  A
C1631      N1638   1.428       .  S
C1632      C1633   1.408   1_554  A
C1632      H1637   1.083       .  S
C1633      C1968   1.419       .  A
C1634      C1800   1.423       .  A
C1634      N1635   1.429       .  S
N1635      O1639   1.262       .  A
N1635      O1640   1.262       .  A
N1638      O1642   1.262       .  A
N1638      O1641   1.262       .  A
C1643      C1811   1.415       .  A
C1643      C1648   1.402       .  A
C1643      H1650   1.083       .  S
C1644      C1977   1.413       .  A
C1644      C1645   1.423   1_556  A
C1645      C1646   1.402       .  A
C1645      N1652   1.428       .  S
C1646      C1981   1.396   1_554  A
C1646      H1651   1.084       .  S
C1647      C1813   1.396       .  A
C1647      C1648   1.402       .  A
C1648      N1649   1.430       .  S
N1649      O1820   1.262       .  A
N1649      O1654   1.262       .  A
N1652      O1990   1.262       .  A
N1652      O1655   1.262       .  A
O1653      N1983   1.262       .  A
O1656      N1819   1.262       .  A
C1657      C1658   1.396       .  A
C1657      C1662   1.399       .  A
C1657      H1664   1.084       .  S
C1658      C1826   1.405       .  A
C1659      C1992   1.404   1_556  A
C1659      C1660   1.403       .  A
C1659      N2000   1.429       .  S
C1660      C1661   1.411   1_556  A
C1660      H1665   1.083       .  S
C1661      C1996   1.421       .  A
C1662      C1828   1.419       .  A
C1662      N1830   1.428       .  S
N1663      C1996   1.429       .  S
N1663      O2001   1.262       .  A
N1663      O1668   1.262       .  A
N1666      C1826   1.429       .  S
N1666      O1837   1.262       .  A
N1666      O1669   1.262       .  A
O1667      N1830   1.262       .  A
O1670      N2000   1.262       .  A
C1671      N1676   1.360       .  A
C1671      C1828   1.494       .  S
N1672      C1838   1.364       .  A
N1672      C1673   1.360       .  A
C1673      N1674   1.360       .  A
C1673      C1759   1.472       .  S
N1674      C1842   1.360       .  A
C1675      N1676   1.357       .  A
C1675      C1769   1.459       .  S
C1677      N1682   1.363       .  A
C1677      C1811   1.499       .  S
N1678      C1844   1.363       .  A
N1678      C1679   1.359       .  A
C1679      N1680   1.357       .  A
C1679      C1737   1.466       .  S
N1680      C1848   1.357       .  A
C1681      N1682   1.361       .  A
C1681      C1744   1.467       .  S
C1683      N1688   1.365       .  A
C1683      C1800   1.497       .  S
N1684      C1850   1.357       .  A
N1684      C1685   1.355       .  A
C1685      N1853   1.359       .  A
C1685      C1729   1.459       .  S
N1686      C1687   1.357       .  A
C1687      N1688   1.360       .  A
C1687      C1749   1.472       .  S
N1689      C1693   1.351       .  A
N1689      H1721   1.037       .  S
N1690      C1698   1.351       .  A
N1691      C1695   1.354       .  A
N1691      H1722   1.031       .  S
N1692      C1700   1.351       .  A
C1693      C1701   1.388       .  A
C1693      C1709   1.413       .  A
C1694      C1710   1.422       .  A
C1694      C1702   1.387       .  A
C1695      C1703   1.386       .  A
C1695      C1712   1.415       .  A
C1696      C1711   1.411       .  A
C1696      C1704   1.388       .  A
C1697      C1709   1.412       .  A
C1698      C1712   1.414       .  A
C1698      C1706   1.386       .  A
C1699      C1710   1.417       .  A
C1700      C1708   1.385       .  A
C1700      C1711   1.411       .  A
C1701      H1713   1.082       .  S
C1702      H1714   1.082       .  S
C1703      H1715   1.082       .  S
C1704      H1716   1.082       .  S
C1705      C1706   1.371       .  A
C1706      H1718   1.082       .  S
C1707      C1708   1.375       .  A
C1708      H1720   1.082       .  S
C1709      C1814   1.477       .  S
C1710      C1825   1.488       .  S
C1711      C1964   1.482       .  S
C1712      C1950   1.483       .  S
C1723      N1728   1.363       .  A
C1723      C1786   1.495       .  S
N1724      C1890   1.361       .  A
N1724      C1725   1.357       .  A
C1725      N1893   1.356       .  A
C1725      C1779   1.459       .  S
N1726      C1727   1.358       .  A
C1727      N1728   1.361       .  A
C1727      C1765   1.467       .  S
C1729      N1747   1.348       .  A
C1729      C1766   1.453       .  S
N1730      N1747   1.325       .  A
N1730      N1752   1.321       .  A
N1730     Co1767   2.089       .  S
C1731      N1756   1.343       .  A
C1731      C1769   1.457       .  S
C1731      H1776   1.081       .  S
H1732      C1773   1.081       .  S
C1733      N1757   1.344       .  A
C1733      C1737   1.457       .  S
C1733      H1762   1.081       .  S
Co1734     N1752   2.083       .  S
Co1734     N1742   2.095       .  S
Co1734     N1774   2.108       .  S
Co1734     N1750   2.078       .  S
Co1734    Cl1778   2.458       .  S
N1735      C1773   1.345       .  A
N1735      N1742   1.321       .  A
N1735     Co1736   2.098       .  S
Co1736     N1739   2.087       .  S
Co1736     N1756   2.095       .  S
Co1736     N1743   2.091       .  S
Co1736    Cl1778   2.457       .  S
C1737      N1775   1.349       .  A
N1738      N1745   1.320       .  A
N1738      N1768   1.322       .  A
N1738     Co1771   2.076       .  S
N1739      N1757   1.321       .  A
N1739      N1775   1.326       .  A
N1740      C1769   1.346       .  A
N1740      N1750   1.324       .  A
H1741      C1766   1.081       .  S
N1742      N1763   1.327       .  A
N1743      N1761   1.321       .  A
N1743      N1748   1.326       .  A
C1744      N1748   1.349       .  A
C1744      C1772   1.458       .  S
N1745      C1760   1.344       .  A
N1745     Co1767   2.091       .  S
C1746      N1774   1.347       .  A
C1746      C1749   1.463       .  S
C1746      H1780   1.081       .  S
C1749      N1770   1.348       .  A
N1750      N1756   1.322       .  A
N1751      C1777   1.345       .  A
N1751      N1753   1.322       .  A
N1751     Co1767   2.101       .  S
N1752      C1766   1.342       .  A
N1753      N1781   1.325       .  A
N1753     Co1771   2.087       .  S
H1754      C1777   1.081       .  S
H1755      C1772   1.081       .  S
N1757     Co1771   2.095       .  S
N1758      N1770   1.326       .  A
N1758      N1774   1.321       .  A
N1758     Co1767   2.088       .  S
C1759      N1763   1.350       .  A
C1759      C1773   1.459       .  S
C1760      C1779   1.458       .  S
C1760      H1764   1.081       .  S
N1761      C1772   1.343       .  A
N1761     Co1771   2.092       .  S
C1765      N1781   1.348       .  A
C1765      C1777   1.460       .  S
Co1767    Cl1778   2.457       .  S
N1768      C1779   1.345       .  A
Co1771    Cl1778   2.455       .  S
C1782      C1950   1.396       .  A
C1782      C1787   1.399       .  A
C1782      H1789   1.084       .  S
C1783      C1784   1.403       .  A
C1784      C1785   1.400       .  A
C1784      N1791   1.430       .  S
C1785      C1786   1.413       .  A
C1785      H1790   1.083       .  S
C1787      C1953   1.420       .  A
C1787      N1788   1.428       .  S
N1788      O1792   1.262       .  A
N1788      O1960   1.262       .  A
N1791      O1795   1.262       .  A
O1794      N1958   1.262       .  A
C1796      C1964   1.398       .  A
C1796      C1801   1.400       .  A
C1796      H1803   1.084       .  S
C1797      C1798   1.405       .  A
C1798      C1799   1.399       .  A
C1798      N1805   1.429       .  S
C1799      C1800   1.409       .  A
C1799      H1804   1.083       .  S
C1801      C1967   1.421       .  A
C1801      N1802   1.429       .  S
N1802      O1806   1.262       .  A
N1802      O1807   1.262       .  A
N1805      O1809   1.262       .  A
N1805      O1808   1.262       .  A
C1810      C1978   1.413       .  A
C1810      C1815   1.401       .  A
C1810      H1817   1.083       .  S
C1811      C1812   1.421       .  A
C1812      C1813   1.399       .  A
C1812      N1819   1.427       .  S
C1813      H1818   1.084       .  S
C1814      C1980   1.394       .  A
C1814      C1815   1.402       .  A
C1815      N1816   1.430       .  S
N1816      O1987   1.262       .  A
N1816      O1821   1.262       .  A
N1819      O1822   1.262       .  A
O1823      N1986   1.262       .  A
C1824      C1825   1.398       .  A
C1824      C1829   1.402       .  A
C1824      H1831   1.084       .  S
C1825      C1993   1.405       .  A
C1826      C1827   1.403       .  A
C1827      C1828   1.411       .  A
C1827      H1832   1.083       .  S
C1829      C1995   1.421       .  A
C1829      N1997   1.428       .  S
N1830      O1835   1.262       .  A
N1833      C1993   1.430       .  S
N1833      O2004   1.262       .  A
N1833      O1836   1.262       .  A
O1834      N1997   1.262       .  A
C1838      N1843   1.361       .  A
C1838      C1995   1.497       .  S
N1839      C1840   1.360       .  A
C1840      N1841   1.357       .  A
C1840      C1926   1.467       .  S
C1842      N1843   1.359       .  A
C1842      C1936   1.469       .  S
C1844      N1849   1.361       .  A
C1844      C1978   1.496       .  S
N1845      C1846   1.360       .  A
C1846      N1847   1.360       .  A
C1846      C1904   1.473       .  S
C1848      N1849   1.357       .  A
C1848      C1911   1.464       .  S
C1850      N1855   1.365       .  A
C1850      C1967   1.489       .  S
N1851      C1852   1.356       .  A
C1852      C1896   1.454       .  S
N1853      C1854   1.358       .  A
C1854      N1855   1.360       .  A
C1854      C1916   1.472       .  S
N1856      C1860   1.352       .  A
N1856      H1888   1.037       .  S
N1857      C1865   1.349       .  A
N1858      C1862   1.354       .  A
N1858      H1889   1.036       .  S
N1859      C1867   1.350       .  A
C1860      C1868   1.387   1_556  A
C1860      C1876   1.414       .  A
C1861      C1877   1.413       .  A
C1861      C1869   1.386       .  A
C1862      C1870   1.386   1_556  A
C1862      C1879   1.415       .  A
C1863      C1878   1.415       .  A
C1863      C1871   1.388       .  A
C1864      C1876   1.413       .  A
C1865      C1879   1.411       .  A
C1865      C1873   1.387       .  A
C1866      C1877   1.410   1_556  A
C1867      C1875   1.387       .  A
C1867      C1878   1.414   1_556  A
C1868      H1880   1.082       .  S
C1869      H1881   1.082       .  S
C1870      H1882   1.082       .  S
C1871      H1883   1.082       .  S
C1872      C1873   1.372       .  A
C1873      H1885   1.082       .  S
C1874      C1875   1.372       .  A
C1875      H1887   1.082       .  S
C1876      C1981   1.484       .  S
C1877      C1992   1.485       .  S
C1890      N1895   1.360       .  A
C1890      C1953   1.496       .  S
N1891      C1892   1.359       .  A
C1892      C1946   1.468       .  S
N1893      C1894   1.356       .  A
C1894      N1895   1.358       .  A
C1894      C1932   1.461       .  S
C1896      N1914   1.344       .  A
C1896      C1933   1.456       .  S
N1897      N1914   1.322       .  A
N1897      N1919   1.321       .  A
N1897     Co1934   2.075       .  S
C1898      N1923   1.346       .  A
C1898      C1936   1.461       .  S
C1898      H1943   1.081       .  S
H1899      C1940   1.081       .  S
C1900      N1924   1.345       .  A
C1900      C1904   1.459       .  S
C1900      H1929   1.081       .  S
Co1901     N1919   2.088       .  S
Co1901     N1909   2.090       .  S
Co1901     N1941   2.098       .  S
Co1901     N1917   2.083       .  S
Co1901    Cl1945   2.458       .  S
N1902      C1940   1.344       .  A
N1902      N1909   1.321       .  A
N1902     Co1903   2.095       .  S
Co1903     N1906   2.098       .  S
Co1903     N1923   2.105       .  S
Co1903     N1910   2.088       .  S
Co1903    Cl1945   2.457       .  S
C1904      N1942   1.351       .  A
N1905      N1912   1.321       .  A
N1905      N1935   1.325       .  A
N1905     Co1938   2.080       .  S
N1906      N1924   1.321       .  A
N1906      N1942   1.327       .  A
N1907      C1936   1.347       .  A
N1907      N1917   1.325       .  A
H1908      C1933   1.081       .  S
N1909      N1930   1.326       .  A
N1910      N1928   1.321       .  A
N1910      N1915   1.325       .  A
C1911      N1915   1.348       .  A
C1911      C1939   1.457       .  S
N1912      C1927   1.346       .  A
N1912     Co1934   2.105       .  S
C1913      N1941   1.345       .  A
C1913      C1916   1.459       .  S
C1913      H1947   1.081       .  S
C1916      N1937   1.351       .  A
N1917      N1923   1.322       .  A
N1918      C1944   1.343       .  A
N1918      N1920   1.321       .  A
N1918     Co1934   2.089       .  S
N1919      C1933   1.343       .  A
N1920      N1948   1.324       .  A
N1920     Co1938   2.085       .  S
H1921      C1944   1.081       .  S
H1922      C1939   1.081       .  S
N1924     Co1938   2.097       .  S
N1925      N1937   1.327       .  A
N1925      N1941   1.321       .  A
N1925     Co1934   2.098       .  S
C1926      N1930   1.349       .  A
C1926      C1940   1.458       .  S
C1927      C1946   1.461       .  S
C1927      H1931   1.081       .  S
N1928      C1939   1.343       .  A
N1928     Co1938   2.091       .  S
C1932      N1948   1.347       .  A
C1932      C1944   1.458       .  S
Co1934    Cl1945   2.456       .  S
N1935      C1946   1.346       .  A
Co1938    Cl1945   2.456       .  S
C1949      C1954   1.399       .  A
C1949      H1956   1.084       .  S
C1950      C1951   1.403       .  A
C1951      C1952   1.401       .  A
C1951      N1958   1.429       .  S
C1952      C1953   1.413       .  A
C1952      H1957   1.083       .  S
C1954      N1955   1.428       .  S
N1955      O1959   1.262       .  A
N1958      O1962   1.262       .  A
C1963      C1968   1.397       .  A
C1963      H1970   1.084       .  S
C1964      C1965   1.405       .  A
C1965      C1966   1.398       .  A
C1965      N1972   1.428       .  S
C1966      C1967   1.406       .  A
C1966      H1971   1.083       .  S
C1968      N1969   1.429       .  S
N1969      O1973   1.262       .  A
N1969      O1974   1.262       .  A
N1972      O1976   1.262       .  A
N1972      O1975   1.262       .  A
C1977      C1982   1.403       .  A
C1977      H1984   1.083       .  S
C1978      C1979   1.422       .  A
C1979      C1980   1.397       .  A
C1979      N1986   1.428       .  S
C1980      H1985   1.084       .  S
C1981      C1982   1.403       .  A
C1982      N1983   1.430       .  S
N1983      O1988   1.262       .  A
N1986      O1989   1.262       .  A
C1991      C1992   1.397       .  A
C1991      C1996   1.401       .  A
C1991      H1998   1.084       .  S
C1993      C1994   1.402       .  A
C1994      C1995   1.411       .  A
C1994      H1999   1.083       .  S
N1997      O2002   1.262       .  A
N2000      O2003   1.262       .  A
