geometry optimzed in LAMMPS
_audit_creation_date              2020-11-30 
_audit_creation_method            'lammps2cif' 
_symmetry_space_group_name_H-M    'P1' 
_symmetry_Int_Tables_number       1 
_symmetry_cell_setting            triclinic 
loop_ 
_symmetry_equiv_pos_as_xyz 
  x,y,z 
_cell_length_a                    31.687764541484384 
_cell_length_b                    31.669462747345715 
_cell_length_c                    25.619896344200736 
_cell_angle_alpha                 91.38170635596525 
_cell_angle_beta                  90.48124130205316 
_cell_angle_gamma                 120.00264271219383 
loop_ 
_atom_site_label 
_atom_site_type_symbol 
_atom_site_fract_x 
_atom_site_fract_y 
_atom_site_fract_z 
_atom_site_charge 
C1          C  0.82858521  0.82476728  0.76160564     0.41570
N2          N  0.80522984  0.74878445  0.75967946     0.00460
C3          C  0.94167400  0.64883593  0.85332398    -0.07410
H4          H  0.02294678  0.76608901  0.71091778     0.05960
C5          C  0.88559160  0.66183089  0.58148991    -0.07760
Co6        Co  0.87389404  0.72799336  0.81864902     0.74180
N7          N  0.95534616  0.74230877  0.75076568    -0.26940
Co8        Co  0.91584338  0.66712497  0.74088531     0.74070
C9          C  0.93926766  0.68952402  0.58133886     0.41680
N10         N  0.78011697  0.65717315  0.63783120     0.00080
N11         N  0.91502464  0.67300104  0.66022882     0.00190
N12         N  0.91295985  0.68882971  0.90153436    -0.47790
H13         H  0.89864859  0.84410671  0.80842046     0.05940
N14         N  0.93864831  0.76557545  0.77953053     0.00470
N15         N  0.87435083  0.59183004  0.73044935     0.00210
C16         C  0.85091632  0.51562922  0.72927870     0.41820
N17         N  0.76401455  0.67919269  0.66957258    -0.26400
C18         C  0.80135690  0.69232007  0.90793447    -0.07320
N19         N  0.79204812  0.78049178  0.74556271    -0.47500
N20         N  0.88682113  0.55997644  0.74610537    -0.47730
C21         C  0.74883571  0.67202004  0.91268567     0.41590
N22         N  0.90017339  0.68595709  0.85174778     0.00460
N23         N  0.72510870  0.59826632  0.73954317    -0.26420
N24         N  0.84758018  0.76950971  0.78502395    -0.26910
N25         N  0.74063832  0.57491133  0.70889818     0.00100
H26         H  0.65944543  0.57484747  0.78291696     0.05990
H27         H  0.78201163  0.49631173  0.68004982     0.06020
N28         N  0.91705696  0.66322825  0.82231945    -0.26960
N29         N  0.87401600  0.65328000  0.63219080    -0.26570
N30         N  0.76598723  0.66973086  0.83167868     0.00460
C31         C  0.00843706  0.82133238  0.75583534     0.41860
C32         C  0.74680781  0.70255306  0.64134533    -0.07830
N33         N  0.83287108  0.57126349  0.70314880    -0.26570
H34         H  0.85979001  0.64914356  0.54893661     0.06010
N35         N  0.96936520  0.81302642  0.78374895    -0.47800
H36         H  0.73043087  0.72277779  0.65720459     0.05990
C37         C  0.67147179  0.51918973  0.73556007     0.41690
C38         C  0.86551066  0.81778697  0.78784464    -0.07320
Co39       Co  0.76422662  0.67364488  0.75022011     0.73820
N40         N  0.77419975  0.66401982  0.58789639    -0.47510
C41         C  0.93848874  0.66540610  0.90637412     0.41960
N42         N  0.72944480  0.65930888  0.86355530    -0.47500
Co43       Co  0.80641385  0.61338167  0.66912912     0.73890
C44         C  0.81494720  0.52280852  0.70080873    -0.07830
C45         C  0.99962697  0.77457273  0.73411537    -0.07390
N46         N  0.80844931  0.69038769  0.85684047    -0.26920
N47         N  0.95440400  0.69465804  0.63157152    -0.47680
H48         H  0.96406982  0.63410340  0.83974744     0.05970
C49         C  0.68153782  0.56615465  0.75785760    -0.07810
Cl50       Cl  0.83986185  0.67012584  0.74473543    -0.50810
C51         C  0.75355188  0.69266885  0.58715955     0.41720
H52         H  0.83023658  0.71201057  0.93677808     0.05930
N53         N  0.70953906  0.52724797  0.70556037    -0.47520
C54         C  0.94125410  0.25611931  0.59275602     0.41570
N55         N  0.91897178  0.24173625  0.67229067     0.00460
C56         C  0.78149190  0.01071552  0.77195568    -0.07410
H57         H  0.68439437  0.04441079  0.64869289     0.05960
C58         C  0.72004817  0.20038070  0.78333084    -0.07760
Co59       Co  0.86659896  0.13429828  0.68793969     0.74180
N60         N  0.75943242  0.09210275  0.67303157    -0.26940
Co61       Co  0.76032180  0.09574107  0.75479455     0.74070
C62         C  0.67754209  0.16574146  0.75186354     0.41680
N63         N  0.84494968  0.27129513  0.78333423     0.00080
N64         N  0.72798616  0.13932519  0.75718588     0.00190
N65         N  0.85255877  0.03944508  0.72939230    -0.47790
H66         H  0.89956788  0.17421881  0.57014608     0.05940
N67         N  0.80068498  0.10856530  0.64797897     0.00470
N68         N  0.76340286  0.09876455  0.83601165     0.00210
C69         C  0.75105339  0.07621005  0.91539411     0.41820
N70         N  0.88472506  0.28581957  0.75582111    -0.26400
C71         C  0.96014361  0.13995965  0.73389970    -0.07320
N72         N  0.94690515  0.27727971  0.64076948    -0.47500
N73         N  0.74369996  0.06000113  0.86527585    -0.47730
C74         C  0.00224860  0.17566749  0.76515739     0.41590
N75         N  0.83616062  0.07041038  0.72855055     0.00460
N76         N  0.92221777  0.24830468  0.83355686    -0.26420
N77         N  0.89742207  0.19857457  0.64815225    -0.26910
N78         N  0.88358679  0.23351254  0.86280863     0.00100
H79         H  0.99887148  0.28395616  0.84907896     0.05990
H80         H  0.78961334  0.15613904  0.94698754     0.06020
N81         N  0.79484891  0.05470465  0.75316230    -0.26960
N82         N  0.74892370  0.18088656  0.78474352    -0.26570
N83         N  0.95338133  0.20304014  0.75334093     0.00460
C84         C  0.74552236  0.06876242  0.58862068     0.41860
C85         C  0.89679199  0.32881234  0.73516751    -0.07830
N86         N  0.78408936  0.14031504  0.86364340    -0.26570
H87         H  0.72741099  0.23374527  0.80370365     0.06010
N88         N  0.79394809  0.09532844  0.59798094    -0.47800
H89         H  0.92838277  0.35025378  0.71184227     0.05990
C90         C  0.94508575  0.26353815  0.91636002     0.41690
C91         C  0.90823353  0.20396119  0.59776824    -0.07320
Co92       Co  0.92037053  0.24563117  0.75353437     0.73820
N93         N  0.82833621  0.30222588  0.78216602    -0.47510
C94         C  0.82024978  0.00116594  0.75642329     0.41960
N95         N  0.99579525  0.21408805  0.77534800    -0.47500
Co96       Co  0.81512187  0.20689003  0.82505254     0.73890
C97         C  0.77775446  0.12978613  0.91470586    -0.07830
C98         C  0.72228961  0.06631801  0.63870143    -0.07390
N99         N  0.93206861  0.16011810  0.72875507    -0.26920
N100        N  0.68475325  0.12846641  0.73743201    -0.47680
H101        H  0.74854919  0.98813236  0.79288580     0.05970
C102        C  0.96223320  0.26750098  0.86352410    -0.07810
Cl103      Cl  0.84046795  0.17070952  0.75521175    -0.50810
C104        C  0.85906366  0.33929889  0.75241060     0.41720
H105        H  0.95241136  0.10531036  0.71652089     0.05930
N106        N  0.89570074  0.24242573  0.91344501    -0.47520
C107        C  0.07284824  0.75331234  0.40824178     0.41570
N108        N  0.09717785  0.76114746  0.32911740     0.00460
C109        C  0.32964155  0.89183709  0.23119605    -0.07410
H110        H  0.28458579  0.99619519  0.34433090     0.05960
C111        C  0.14309124  0.95754247  0.22534456    -0.07760
Co112      Co  0.20572240  0.81205396  0.31997168     0.74180
N113        N  0.24791421  0.91933456  0.32834634    -0.26940
Co114      Co  0.24692635  0.91651752  0.24799700     0.74070
C115        C  0.17816724  0.99917166  0.25788559     0.41680
N116        N  0.07277904  0.83301103  0.21896117     0.00080
N117        N  0.20491654  0.94973170  0.24628325     0.00190
N118        N  0.30190997  0.82413936  0.27896695    -0.47790
H119        H  0.15229905  0.79317643  0.44072226     0.05940
N120        N  0.23227305  0.88082123  0.35748598     0.00470
N121        N  0.24554871  0.91506628  0.16667074     0.00210
C122        C  0.26409879  0.93900618  0.08816671     0.41820
N123        N  0.05642894  0.79242643  0.24467900    -0.26400
C124        C  0.19894598  0.71554623  0.28073229    -0.07320
N125        N  0.05775821  0.74333960  0.35784520    -0.47500
N126        N  0.28255391  0.94369423  0.13703105    -0.47730
C127        C  0.16455285  0.67241453  0.24972730     0.41590
N128        N  0.27115213  0.84095743  0.27929851     0.00460
N129        N  0.09550706  0.75521345  0.16563287    -0.26420
N130        N  0.13813725  0.78269344  0.35730388    -0.26910
N131        N  0.11247425  0.79608639  0.14005153     0.00100
H132        H  0.05017923  0.67959663  0.14133324     0.05990
H133        H  0.18368728  0.89901283  0.06139752     0.06020
N134        N  0.28647317  0.88040785  0.25146929    -0.26960
N135        N  0.16284144  0.92894416  0.22042967    -0.26570
N136        N  0.13912275  0.72383820  0.25231501     0.00460
C137        C  0.26349726  0.94263631  0.41149143     0.41860
C138        C  0.01313341  0.78103729  0.26477011    -0.07830
N139        N  0.20347166  0.89407686  0.14069814    -0.26570
H140        H  0.10906927  0.95038944  0.20735484     0.06010
N141        N  0.24133319  0.89314613  0.40810846    -0.47800
H142        H  0.99051893  0.74921832  0.28711984     0.05990
C143        C  0.07546383  0.73966375  0.08043184     0.41690
C144        C  0.12651081  0.77946693  0.40814130    -0.07320
Co145      Co  0.09647570  0.75699142  0.24776697     0.73820
N146        N  0.04271991  0.85044399  0.21987987    -0.47510
C147        C  0.33960984  0.85422534  0.24927867     0.41960
N148        N  0.12800301  0.67987624  0.23385664    -0.47500
Co149      Co  0.13766055  0.86294886  0.17937706     0.73890
C150        C  0.21158437  0.90642951  0.09062144    -0.07830
C151        C  0.26758670  0.95959831  0.35863401    -0.07390
N152        N  0.18005961  0.74499969  0.28048989    -0.26920
N153        N  0.21576921  0.99204589  0.26892633    -0.47680
H154        H  0.35150017  0.92304864  0.20771662     0.05970
C155        C  0.07173480  0.71742440  0.13117030    -0.07810
Cl156      Cl  0.17182070  0.83696737  0.24856019    -0.50810
C157        C  0.00444379  0.81997138  0.24835497     0.41720
H158        H  0.23155526  0.72279358  0.30214037     0.05930
N159        N  0.10098344  0.78835877  0.08967962    -0.47520
C160        C  0.49407851  0.33649809  0.76193567     0.41570
N161        N  0.41803537  0.28480577  0.76901550     0.00460
C162        C  0.31724567  0.05156768  0.86434698    -0.07410
H163        H  0.43433817  0.08741913  0.70983495     0.05960
C164        C  0.30814250  0.10371160  0.59918781    -0.07760
Co165      Co  0.40154178  0.19872869  0.83127499     0.74180
N166        N  0.41224827  0.12969322  0.75767602    -0.26940
Co167      Co  0.33640521  0.09250843  0.75466210     0.74070
C168        C  0.32873199  0.07183143  0.59296541     0.41680
N169        N  0.31539126  0.21066316  0.65719796     0.00080
N170        N  0.33412614  0.09382311  0.67360216     0.00190
N171        N  0.35798932  0.11965810  0.91619199    -0.47790
H172        H  0.51650145  0.28928242  0.80860218     0.05940
N173        N  0.43679929  0.16973622  0.78721698     0.00470
N174        N  0.26088410  0.05779177  0.75243498     0.00210
C175        C  0.18508760  0.00573437  0.75719988     0.41820
N176        N  0.33890497  0.25164996  0.68539309    -0.26400
C177        C  0.36171805  0.23515235  0.92440735    -0.07320
N178        N  0.44876320  0.32785788  0.75007303    -0.47500
N179        N  0.23015164  0.01371599  0.76890508    -0.47730
C180        C  0.33416750  0.26107132  0.92763066     0.41590
N181        N  0.36071799  0.13043268  0.86594316     0.00460
N182        N  0.26642135  0.21341974  0.76519092    -0.26420
N183        N  0.44045349  0.26516353  0.79380475    -0.26910
N184        N  0.24175631  0.17256484  0.73713364     0.00100
H185        H  0.24436017  0.25565853  0.81320819     0.05990
H186        H  0.16300170  0.05424981  0.71284253     0.06020
N187        N  0.33722291  0.09099295  0.83531273    -0.26960
N188        N  0.31214785  0.11460704  0.65038190    -0.26570
N189        N  0.34316980  0.24791677  0.84727307     0.00460
C190        C  0.49188620  0.15752922  0.75404006     0.41860
C191        C  0.34925575  0.28912869  0.65440604    -0.07830
N192        N  0.23858769  0.07823707  0.72936851    -0.26570
H193        H  0.28739356  0.11149483  0.57118753     0.06010
N194        N  0.48442855  0.18742051  0.78622167    -0.47800
H195        H  0.36417763  0.32673109  0.66750889     0.05990
C196        C  0.18678570  0.18397969  0.77154066     0.41690
C197        C  0.48875448  0.29508242  0.79098625    -0.07320
Co198      Co  0.34210369  0.25040910  0.76673635     0.73820
N199        N  0.30871796  0.21796681  0.60797626    -0.47510
C200        C  0.33090937  0.07027082  0.91777475     0.41960
N201        N  0.32421493  0.26753753  0.87835904    -0.47500
Co202      Co  0.27684775  0.14407818  0.69290634     0.73890
C203        C  0.19045591  0.04822277  0.73084050    -0.07830
C204        C  0.44393253  0.11887946  0.73517321    -0.07390
N205        N  0.36528459  0.22848115  0.87283089    -0.26920
N206        N  0.34316956  0.06642284  0.64083066    -0.47680
H207        H  0.29663852  0.01429538  0.84942842     0.05970
C208        C  0.23479335  0.22392720  0.78833608    -0.07810
Cl209      Cl  0.33941999  0.17153553  0.76124178    -0.50810
C210        C  0.32938513  0.26655141  0.60281724     0.41720
H211        H  0.37735215  0.22431173  0.95537844     0.05930
N212        N  0.19411015  0.15390589  0.73962378    -0.47520
C213        C  0.00977054  0.17935563  0.26340440     0.41570
N214        N  0.05990260  0.25576688  0.25602121     0.00460
C215        C  0.29123329  0.34723004  0.15506407    -0.07410
H216        H  0.25840338  0.24145014  0.31268424     0.05960
C217        C  0.23697595  0.35957508  0.42597554    -0.07760
Co218      Co  0.14630613  0.27270010  0.19479657     0.74180
N219        N  0.21597624  0.26331449  0.26591339    -0.26940
Co220      Co  0.25240394  0.33906937  0.26774853     0.74070
C221        C  0.26276041  0.33186690  0.42866703     0.41680
N222        N  0.13215102  0.35786453  0.36846604     0.00080
N223        N  0.24993868  0.34068876  0.34846849     0.00190
N224        N  0.22026805  0.30596147  0.10901948    -0.47790
H225        H  0.05902938  0.15867661  0.21668326     0.05940
N226        N  0.17524886  0.23842521  0.23807600     0.00470
N227        N  0.28611765  0.41489786  0.26966711     0.00210
C228        C  0.33642768  0.49100369  0.26046511     0.41820
N229        N  0.09304830  0.33339606  0.33794197    -0.26400
C230        C  0.10630144  0.30338524  0.10207320    -0.07320
N231        N  0.01692766  0.22441821  0.27496406    -0.47500
N232        N  0.32826266  0.44566763  0.24874872    -0.47730
C233        C  0.07446369  0.32398372  0.09620270     0.41590
N234        N  0.21272461  0.31180877  0.15864086     0.00460
N235        N  0.13048578  0.40759359  0.26064660    -0.26420
N236        N  0.08065220  0.23389451  0.23195911    -0.26910
N237        N  0.17058512  0.43298335  0.28960345     0.00100
H238        H  0.08721329  0.42811876  0.21362048     0.05990
H239        H  0.28895253  0.51302672  0.30895074     0.06200
N240        N  0.25358401  0.33568194  0.18655673    -0.26960
N241        N  0.23043677  0.36295819  0.37447060    -0.26570
N242        N  0.09534176  0.32900063  0.17679628     0.00460
C243        C  0.18686739  0.18364559  0.27121420     0.41860
C244        C  0.05362011  0.31224205  0.36680929    -0.07830
N245        N  0.26638536  0.43727472  0.29510917    -0.26570
H246        H  0.22588962  0.37517094  0.45727822     0.06010
N247        N  0.15682543  0.19082196  0.23997261    -0.47800
H248        H  0.01660738  0.29113522  0.35166861     0.05990
C249        C  0.15702697  0.48695429  0.25680123     0.41690
C250        C  0.05186264  0.18565166  0.23455703    -0.07320
Co251      Co  0.09404830  0.33169885  0.25776840     0.73820
N252        N  0.12104434  0.35465633  0.41878824    -0.47510
C253        C  0.26890405  0.32773056  0.10345807     0.41960
N254        N  0.06854756  0.33840984  0.14426603    -0.47500
Co255      Co  0.20024830  0.39861588  0.33334374     0.73890
C256        C  0.29551378  0.48551204  0.29141242    -0.07830
C257        C  0.22666765  0.23177766  0.28825203    -0.07390
N258        N  0.11646486  0.30720824  0.15319432    -0.26920
N259        N  0.26933485  0.32172362  0.37916239    -0.47680
H260        H  0.32892862  0.36302401  0.16766471     0.05970
C261        C  0.11886825  0.43851009  0.23847767    -0.07810
Cl262      Cl  0.17333429  0.33568915  0.26332560    -0.50810
C263        C  0.07182972  0.32584755  0.42014461     0.41720
H264        H  0.11477602  0.28291228  0.07384076     0.05930
N265        N  0.18754826  0.48054463  0.28842897    -0.47520
C266        C  0.82726254  0.82742259  0.24407025     0.41570
N267        N  0.75074504  0.80135548  0.23605908     0.00460
C268        C  0.66136525  0.94419445  0.13546597    -0.07410
H269        H  0.76785241  0.01646711  0.29593562     0.05960
C270        C  0.65527752  0.88205177  0.40656146    -0.07760
Co271      Co  0.73249008  0.87020136  0.17566660     0.74180
N272        N  0.74527023  0.95171057  0.24751914    -0.26940
Co273      Co  0.66989780  0.91305828  0.24835704     0.74070
C274        C  0.68222782  0.93548690  0.40989463     0.41680
N275        N  0.65660575  0.77754288  0.34915464     0.00080
N276        N  0.67204719  0.91179375  0.32942802     0.00190
N277        N  0.70008985  0.91218088  0.09035486    -0.47790
H278        H  0.84620756  0.89662355  0.19886559     0.05940
N279        N  0.76936796  0.93524241  0.22011826     0.00470
N280        N  0.59393800  0.87104275  0.25042494     0.00210
C281        C  0.51736589  0.84637724  0.24592315     0.41820
N282        N  0.67849848  0.76047139  0.31880375    -0.26400
C283        C  0.69642170  0.79510428  0.08197119    -0.07320
N284        N  0.78270193  0.79002722  0.25519658    -0.47500
N285        N  0.56179613  0.88263730  0.23242198    -0.47730
C286        C  0.67304436  0.74201181  0.07555008     0.41590
N287        N  0.69312282  0.89774391  0.13907133     0.00460
N288        N  0.59921416  0.72140385  0.24173017    -0.26420
N289        N  0.77180090  0.84341142  0.21271354    -0.26910
N290        N  0.57647689  0.73827310  0.27099625     0.00100
H291        H  0.57405807  0.65403367  0.19698514     0.05990
H292        H  0.49890189  0.77908231  0.29431967     0.06020
N293        N  0.67063745  0.91600372  0.16664625    -0.26960
N294        N  0.65113151  0.87081440  0.35504899    -0.26570
N295        N  0.67288059  0.76199222  0.15666753     0.00460
C296        C  0.82477656  0.00256873  0.25564413     0.41860
C297        C  0.70095728  0.74309127  0.34827518    -0.07830
N298        N  0.57328998  0.83002259  0.27616804    -0.26570
H299        H  0.64019679  0.85620332  0.43743115     0.06010
N300        N  0.81711564  0.96472361  0.22369717    -0.47800
H301        H  0.72132846  0.72653970  0.33348583     0.05990
C302        C  0.51930357  0.66904222  0.24101674     0.41690
C303        C  0.82000015  0.86268607  0.21575278    -0.07320
Co304      Co  0.67504498  0.76035141  0.23802414     0.73820
N305        N  0.66291208  0.77233803  0.39955345    -0.47510
C306        C  0.68091694  0.94141499  0.08453483     0.41960
N307        N  0.66059160  0.72435794  0.12397601    -0.47500
Co308      Co  0.61388526  0.80380543  0.31407161     0.73890
C309        C  0.52499871  0.81161173  0.27501705    -0.07830
C310        C  0.77712249  0.99427138  0.27123973    -0.07390
N311        N  0.69506749  0.80403974  0.13313552    -0.26920
N312        N  0.69121237  0.95107429  0.36067317    -0.47680
H313        H  0.64815558  0.96814581  0.14845841     0.05970
C314        C  0.56608338  0.67749842  0.22120228    -0.07810
Cl315      Cl  0.67239598  0.83668231  0.24379640    -0.50810
C316        C  0.69082120  0.75086597  0.40181140     0.41720
H317        H  0.71663770  0.82253469  0.05372105     0.05930
N318        N  0.52892015  0.70814748  0.27169805    -0.47520
C319        C  0.92163868  0.13346659  0.28601111    -0.14230
C320        C  0.96357715  0.13322569  0.26924390     0.07920
C321        C  0.96015363  0.08869029  0.25397021    -0.14230
C322        C  0.91509109  0.04582908  0.25169506    -0.14230
C323        C  0.87268702  0.04657818  0.26514671     0.07920
C324        C  0.87646436  0.09037872  0.28407642    -0.14230
H325        H  0.92337503  0.16723693  0.29845800     0.11900
H326        H  0.99193106  0.08699710  0.24196432     0.11900
H327        H  0.91323900  0.01233336  0.23784985     0.11900
H328        H  0.84436162  0.09193444  0.29507377     0.11900
C329        C  0.46608075  0.57902131  0.22175655    -0.14230
C330        C  0.47129665  0.62387459  0.23889800     0.07920
C331        C  0.43061986  0.62500629  0.25852123    -0.14230
C332        C  0.38630656  0.58197650  0.26362946    -0.14230
C333        C  0.38168880  0.53677437  0.24936064     0.07920
C334        C  0.42156962  0.53575250  0.22700083    -0.14230
H335        H  0.49677774  0.57706273  0.20634422     0.11900
H336        H  0.43342022  0.65915857  0.27143657     0.11900
H337        H  0.35614275  0.58422656  0.28010561     0.11900
H338        H  0.41888364  0.50140191  0.21524726     0.11900
C339        C  0.31053755  0.26556187  0.50865157    -0.14230
C340        C  0.31671841  0.28734331  0.55846055     0.07920
C341        C  0.30543524  0.32474429  0.56583181    -0.14230
C342        C  0.28715714  0.33924705  0.52398708    -0.14230
C343        C  0.28085831  0.31711619  0.47416030     0.07920
C344        C  0.29330603  0.28058482  0.46691706    -0.14230
H345        H  0.31853924  0.23638765  0.50214509     0.11900
H346        H  0.30910236  0.34152409  0.60418958     0.11900
H347        H  0.27813964  0.36767592  0.53052041     0.11900
H348        H  0.28886709  0.26281967  0.42895868     0.11900
C349        C  0.28544810  0.29496044  0.96644828    -0.14230
C350        C  0.31987247  0.27981454  0.97343527     0.07920
C351        C  0.34015930  0.28367196  0.02346743    -0.14230
C352        C  0.32570653  0.30196973  0.06586355    -0.14230
C353        C  0.29023920  0.31574675  0.05872546     0.07920
C354        C  0.27044832  0.31224629  0.00871968    -0.14230
H355        H  0.26917417  0.29246514  0.92830686     0.11900
H356        H  0.36692275  0.27250794  0.02980884     0.11900
H357        H  0.34078164  0.30352684  0.10443158     0.11900
H358        H  0.24271797  0.32219367  0.00252627     0.11900
C359        C  0.29836815  0.02357055  0.05529143    -0.14230
C360        C  0.28785300  0.97509042  0.04755857     0.07920
C361        C  0.29516365  0.95969580  0.99865642    -0.14230
C362        C  0.31147396  0.99174116  0.95747630    -0.14230
C363        C  0.32017294  0.03972438  0.96412082     0.07920
C364        C  0.31457746  0.05582843  0.01376096    -0.14230
H365        H  0.29212507  0.03578737  0.09280180     0.11900
H366        H  0.28705001  0.92244997  0.99198880     0.11900
H367        H  0.31616470  0.97840672  0.91991427     0.11900
H368        H  0.32066145  0.09242946  0.01979449     0.11900
C369        C  0.30918484  0.02559527  0.45413225    -0.14230
C370        C  0.28363147  0.97459099  0.45909999     0.07920
C371        C  0.27708423  0.95563665  0.50931598    -0.14230
C372        C  0.29441721  0.98732259  0.55355352    -0.14230
C373        C  0.31798522  0.03813579  0.54788856     0.07920
C374        C  0.32568448  0.05685583  0.49794545    -0.14230
H375        H  0.31570132  0.04202876  0.41641559     0.11900
H376        H  0.25766766  0.91660903  0.51437245     0.11900
H377        H  0.28742289  0.97218966  0.59210033     0.11900
H378        H  0.34352393  0.09586811  0.49287099     0.11900
C379        C  0.13714270  0.04868320  0.25609318    -0.14230
C380        C  0.17806753  0.04484404  0.26933453     0.07920
C381        C  0.22014517  0.08605199  0.28998979    -0.14230
C382        C  0.22244139  0.13125454  0.29362636    -0.14230
C383        C  0.18264735  0.13561925  0.27664928     0.07920
C384        C  0.13944236  0.09370296  0.25968471    -0.14230
H385        H  0.10386785  0.01737510  0.24115771     0.11900
H386        H  0.25204318  0.08385379  0.30103100     0.11900
H387        H  0.25606849  0.16298926  0.30714759     0.11900
H388        H  0.10793897  0.09603030  0.24717984     0.11900
C389        C  0.12227242  0.58264969  0.22727735    -0.14230
C390        C  0.16403186  0.62545975  0.24560881     0.07920
C391        C  0.20455552  0.62256561  0.26336512    -0.14230
C392        C  0.20252021  0.57760656  0.26541061    -0.14230
C393        C  0.16008260  0.53453281  0.24937664     0.07920
C394        C  0.12032472  0.53750881  0.22908276    -0.14230
H395        H  0.09056818  0.58382382  0.21319162     0.11900
H396        H  0.23763830  0.65487363  0.27689075     0.11900
H397        H  0.23394204  0.57647260  0.28058026     0.11900
H398        H  0.08713492  0.50490544  0.21631664     0.11900
C399        C  0.42841122  0.89231553  0.22917039    -0.14230
C400        C  0.38442867  0.85139688  0.24318982     0.07920
C401        C  0.38393808  0.80796478  0.25404063    -0.14230
C402        C  0.42688903  0.80588408  0.25280182    -0.14230
C403        C  0.47133276  0.84734356  0.24112231     0.07920
C404        C  0.47156459  0.89031467  0.22820879    -0.14230
H405        H  0.42986994  0.92633978  0.22073289     0.11900
H406        H  0.35039591  0.77573767  0.26434467     0.11900
H407        H  0.42531900  0.77197710  0.26206582     0.11900
H408        H  0.50531774  0.92281170  0.21905743     0.11900
C409        C  0.91938540  0.78943024  0.27981837    -0.14230
C410        C  0.96017174  0.82364321  0.25283425     0.07920
C411        C  0.95791955  0.86095311  0.22691810    -0.14230
C412        C  0.91516241  0.86289998  0.22575573    -0.14230
C413        C  0.87352101  0.82754657  0.25049981     0.07920
C414        C  0.87617689  0.79135414  0.27858863    -0.14230
H415        H  0.92040684  0.76059150  0.30059343     0.11900
H416        H  0.98889410  0.88807666  0.20608431     0.11900
H417        H  0.91470481  0.89145872  0.20394605     0.11900
H418        H  0.84461469  0.76396313  0.29843174     0.11900
C419        C  0.02621422  0.29306495  0.95863297    -0.14230
C420        C  0.97722924  0.28084921  0.96352963     0.07920
C421        C  0.96090279  0.28627304  0.01269344    -0.14230
C422        C  0.99315869  0.30300063  0.05617434    -0.14230
C423        C  0.04173914  0.31390649  0.05076963     0.07920
C424        C  0.05795252  0.30944484  0.00155304    -0.14230
H425        H  0.04037561  0.28899831  0.92177150     0.11900
H426        H  0.92345911  0.27733350  0.01749116     0.11900
H427        H  0.97974138  0.30565112  0.09416766     0.11900
H428        H  0.09512650  0.31754117  0.99641414     0.11900
C429        C  0.96229257  0.25155169  0.50105430    -0.14230
C430        C  0.97482085  0.27738697  0.54906615     0.07920
C431        C  0.02069771  0.32001017  0.55537963    -0.14230
C432        C  0.05362675  0.33591106  0.51407524    -0.14230
C433        C  0.04065606  0.30939644  0.46623251     0.07920
C434        C  0.99482195  0.26702002  0.46052434    -0.14230
H435        H  0.92728304  0.21882005  0.49468076     0.11900
H436        H  0.03138347  0.34035211  0.59233443     0.11900
H437        H  0.08863954  0.36890576  0.51921937     0.11900
H438        H  0.98375897  0.24523092  0.42452200     0.11900
C439        C  0.72514311  0.99539604  0.95280154    -0.14230
C440        C  0.73294999  0.04292002  0.95972456     0.07920
C441        C  0.72131172  0.05658407  0.00769449    -0.14230
C442        C  0.70208947  0.02302075  0.04796023    -0.14230
C443        C  0.69518889  0.97570947  0.04107115     0.07920
C444        C  0.70697499  0.96242503  0.99306853    -0.14230
H445        H  0.73376421  0.98381537  0.91623359     0.11900
H446        H  0.72656592  0.09285421  0.01381210     0.11900
H447        H  0.69400662  0.03453787  0.08484006     0.11900
H448        H  0.70246597  0.92644214  0.98678336     0.11900
C449        C  0.68261272  0.98997568  0.54381730    -0.14230
C450        C  0.72541476  0.03570428  0.54202197     0.07920
C451        C  0.75291869  0.04791152  0.49650426    -0.14230
C452        C  0.73842442  0.01512114  0.45387144    -0.14230
C453        C  0.69659177  0.96894185  0.45604417     0.07920
C454        C  0.66854651  0.95655643  0.50122007    -0.14230
H455        H  0.66101732  0.97936927  0.57866106     0.11900
H456        H  0.78620884  0.08272002  0.49417295     0.11900
H457        H  0.76058506  0.02557134  0.41937811     0.11900
H458        H  0.63577289  0.92133495  0.50341422     0.11900
C459        C  0.13439497  0.21905442  0.79804944    -0.14230
C460        C  0.13873570  0.17965925  0.77844096     0.07920
C461        C  0.09676670  0.13684230  0.76083283    -0.14230
C462        C  0.05176109  0.13460566  0.75926516    -0.14230
C463        C  0.04794010  0.17528781  0.77501262     0.07920
C464        C  0.08922509  0.21688439  0.79628476    -0.14230
H465        H  0.16611717  0.25235229  0.81228300     0.11900
H466        H  0.09900387  0.10560547  0.74634597     0.11900
H467        H  0.02048318  0.10160739  0.74378166     0.11900
H468        H  0.08708894  0.24853937  0.80933114     0.11900
C469        C  0.62697343  0.20503018  0.76652117    -0.14230
C470        C  0.63098558  0.16561850  0.74619756     0.07920
C471        C  0.58941013  0.12506865  0.72377577    -0.14230
C472        C  0.54416759  0.12294014  0.72426028    -0.14230
C473        C  0.53988541  0.16129639  0.74733584     0.07920
C474        C  0.58192546  0.20280015  0.76723933    -0.14230
H475        H  0.65829148  0.23722138  0.78328788     0.11900
H476        H  0.59151903  0.09431817  0.70747642     0.11900
H477        H  0.51242325  0.09058863  0.70833360     0.11900
H478        H  0.57984125  0.23321176  0.78464052     0.11900
C479        C  0.01341809  0.73045751  0.95065104    -0.14230
C480        C  0.97689657  0.68127039  0.94733484     0.07920
C481        C  0.97533028  0.64966867  0.98572921    -0.14230
C482        C  0.00874381  0.66777473  0.02828142    -0.14230
C483        C  0.04414703  0.71766828  0.03270811     0.07920
C484        C  0.04680603  0.74837888  0.99256343    -0.14230
H485        H  0.01520384  0.75543463  0.92138786     0.11900
H486        H  0.94721141  0.61159604  0.98386873     0.11900
H487        H  0.00575382  0.64313112  0.05844673     0.11900
H488        H  0.07363251  0.78689431  0.99446113     0.11900
C489        C  0.02390485  0.73031162  0.54611906    -0.14230
C490        C  0.97312321  0.70665700  0.53675316     0.07920
C491        C  0.95568393  0.69928777  0.48488660    -0.14230
C492        C  0.98823311  0.71480881  0.44344300    -0.14230
C493        C  0.03899503  0.73808451  0.45281706     0.07920
C494        C  0.05644089  0.74583916  0.50469259    -0.14230
H495        H  0.03863426  0.73663812  0.58567098     0.11900
H496        H  0.91695005  0.68136584  0.47623924     0.11900
H497        H  0.97353114  0.70838779  0.40386967     0.11900
H498        H  0.09516141  0.76356850  0.51335026     0.11900
C499        C  0.78107161  0.86780228  0.75962830    -0.14230
C500        C  0.82634438  0.86983191  0.76057566     0.07920
C501        C  0.86940438  0.91518814  0.76172783    -0.14230
C502        C  0.86722283  0.95804035  0.76093460    -0.14230
C503        C  0.82199127  0.95604187  0.76041231     0.07920
C504        C  0.77890442  0.91074052  0.76027608    -0.14230
H505        H  0.74742100  0.83306151  0.75902481     0.11900
H506        H  0.90467114  0.91746483  0.76231547     0.11900
H507        H  0.90085992  0.99279013  0.76080164     0.11900
H508        H  0.74366288  0.90849505  0.75919766     0.11900
C509        C  0.80944462  0.42511787  0.73771976    -0.14230
C510        C  0.85251621  0.47020331  0.73426635     0.07920
C511        C  0.89761620  0.47186277  0.73595597    -0.14230
C512        C  0.89966718  0.42904884  0.74045804    -0.14230
C513        C  0.85670760  0.38407540  0.74502464     0.07920
C514        C  0.81157568  0.38241675  0.74396241    -0.14230
H515        H  0.77429421  0.42308856  0.73672979     0.11900
H516        H  0.93130618  0.50627037  0.73319603     0.11900
H517        H  0.93489934  0.43127915  0.74164284     0.11900
H518        H  0.77799122  0.34803141  0.74748554     0.11900
C519        C  0.09883528  0.87026146  0.75352026    -0.14230
C520        C  0.05371856  0.86831591  0.75598574     0.07920
C521        C  0.05204480  0.91162699  0.76076079    -0.14230
C522        C  0.09505519  0.95654407  0.76177598    -0.14230
C523        C  0.14020247  0.95853598  0.75943342     0.07920
C524        C  0.14193237  0.91518172  0.75595345    -0.14230
H525        H  0.10080869  0.83712652  0.75055273     0.11900
H526        H  0.01745309  0.91068664  0.76296650     0.11900
H527        H  0.09306813  0.98969170  0.76455441     0.11900
H528        H  0.17648890  0.91607904  0.75373912     0.11900
C529        C  0.58136920  0.47061175  0.74424340    -0.14230
C530        C  0.62618661  0.47199658  0.74018823     0.07920
C531        C  0.62729152  0.42829540  0.74170987    -0.14230
C532        C  0.58427211  0.38400202  0.74892580    -0.14230
C533        C  0.53943299  0.38270327  0.75296219     0.07920
C534        C  0.53828220  0.42627455  0.74975154    -0.14230
H535        H  0.57959987  0.50384399  0.74276786     0.11900
H536        H  0.66153395  0.42862466  0.73872312     0.11900
H537        H  0.58598989  0.35077765  0.75105660     0.11900
H538        H  0.50419099  0.42622415  0.75287913     0.11900
C539        C  0.75216658  0.70377688  0.00394079    -0.14230
C540        C  0.72552383  0.68297652  0.95702828     0.07920
C541        C  0.67888555  0.67776704  0.95140597    -0.14230
C542        C  0.66059970  0.69549267  0.99074267    -0.14230
C543        C  0.68863306  0.71835657  0.03616074     0.07920
C544        C  0.73402101  0.72149991  0.04287160    -0.14230
H545        H  0.78780818  0.70784120  0.01021353     0.11900
H546        H  0.65743370  0.66183256  0.91581278     0.11900
H547        H  0.62539259  0.69272439  0.98506396     0.11900
H548        H  0.75607799  0.73897406  0.07781762     0.11900
C549        C  0.74316123  0.69238392  0.48988713    -0.14230
C550        C  0.73773302  0.70789794  0.53980964     0.07920
C551        C  0.71643534  0.73767945  0.54409859    -0.14230
C552        C  0.70083505  0.75144665  0.49951007    -0.14230
C553        C  0.70642114  0.73599631  0.44958869     0.07920
C554        C  0.72774686  0.70625647  0.44538968    -0.14230
H555        H  0.75921047  0.66937000  0.48518372     0.11900
H556        H  0.71172049  0.75051769  0.58191086     0.11900
H557        H  0.68474601  0.77443627  0.50407392     0.11900
H558        H  0.73241273  0.69323414  0.40767113     0.11900
loop_ 
_geom_bond_atom_site_label_1 
_geom_bond_atom_site_label_2 
_geom_bond_distance 
_geom_bond_site_symmetry_2 
_ccdc_geom_bond_type 
C1           N19   1.348       .  A
C1           C38   1.457       .  S
C1          C500   1.465       .  S
N2           N19   1.322       .  A
N2           N24   1.318       .  A
N2          Co39   2.070       .  S
C3           N28   1.345       .  A
C3           C41   1.468       .  S
C3           H48   1.082       .  S
H4           C45   1.082   1_455  S
C5           N29   1.349       .  A
C5            C9   1.473       .  S
C5           H34   1.081       .  S
Co6          N24   2.075       .  S
Co6          N14   2.069       .  S
Co6          N46   2.073       .  S
Co6          N22   2.082       .  S
Co6         Cl50   2.435       .  S
N7           C45   1.339       .  A
N7           N14   1.318       .  A
N7           Co8   2.070       .  S
Co8          N11   2.080       .  S
Co8          N28   2.094       .  S
Co8          N15   2.077       .  S
Co8         Cl50   2.459       .  S
C9           N47   1.347       .  A
C9          C490   1.489       .  S
N10          N17   1.320       .  A
N10          N40   1.330       .  A
N10         Co43   2.112       .  S
N11          N29   1.321       .  A
N11          N47   1.323       .  A
N12          C41   1.350       .  A
N12          N22   1.322       .  A
H13          C38   1.081       .  S
N14          N35   1.321       .  A
N15          N33   1.322       .  A
N15          N20   1.323       .  A
C16          N20   1.348       .  A
C16          C44   1.462       .  S
C16         C510   1.473       .  S
N17          C32   1.338       .  A
N17         Co39   2.078       .  S
C18          N46   1.335       .  A
C18          C21   1.461       .  S
C18          H52   1.081       .  S
C21          N42   1.356       .  A
C21         C540   1.486       .  S
N22          N28   1.319       .  A
N23          C49   1.338       .  A
N23          N25   1.322       .  A
N23         Co39   2.077       .  S
N24          C38   1.338       .  A
N25          N53   1.327       .  A
N25         Co43   2.103       .  S
H26          C49   1.082       .  S
H27          C44   1.081       .  S
N29         Co43   2.113       .  S
N30          N42   1.328       .  A
N30          N46   1.319       .  A
N30         Co39   2.096       .  S
C31          N35   1.346   1_455  A
C31          C45   1.458   1_455  S
C31         C520   1.462       .  S
C32          C51   1.457       .  S
C32          H36   1.081       .  S
N33          C44   1.343       .  A
N33         Co43   2.099       .  S
C37          N53   1.352       .  A
C37          C49   1.457       .  S
C37         C530   1.474       .  S
Co39        Cl50   2.459       .  S
N40          C51   1.359       .  A
C41         C480   1.475       .  S
Co43        Cl50   2.449       .  S
C51         C550   1.488       .  S
C54          N72   1.353       .  A
C54          C91   1.457       .  S
C54         C430   1.476       .  S
N55          N72   1.327       .  A
N55          N77   1.318       .  A
N55         Co92   2.081       .  S
C56          N81   1.341       .  A
C56          C94   1.460       .  S
C56         H101   1.082   1_545  S
H57          C98   1.081       .  S
C58          N82   1.336       .  A
C58          C62   1.459       .  S
C58          H87   1.081       .  S
Co59         N77   2.065       .  S
Co59         N67   2.073       .  S
Co59         N99   2.072       .  S
Co59         N75   2.067       .  S
Co59       Cl103   2.423       .  S
N60          C98   1.346       .  A
N60          N67   1.320       .  A
N60         Co61   2.094       .  S
Co61         N64   2.091       .  S
Co61         N81   2.076       .  S
Co61         N68   2.080       .  S
Co61       Cl103   2.461       .  S
C62         N100   1.354       .  A
C62         C470   1.479       .  S
N63          N70   1.322       .  A
N63          N93   1.325       .  A
N63         Co96   2.095       .  S
N64          N82   1.321       .  A
N64         N100   1.327       .  A
N65          C94   1.345       .  A
N65          N75   1.320       .  A
H66          C91   1.081       .  S
N67          N88   1.320       .  A
N68          N86   1.322       .  A
N68          N73   1.321       .  A
C69          N73   1.345       .  A
C69          C97   1.470       .  S
C69         C440   1.481       .  S
N70          C85   1.341       .  A
N70         Co92   2.082       .  S
C71          N99   1.337       .  A
C71          C74   1.459   1_655  S
C71         H105   1.081       .  S
C74          N95   1.351   1_455  A
C74         C463   1.474       .  S
N75          N81   1.318       .  A
N76         C102   1.326       .  A
N76          N78   1.318       .  A
N76         Co92   2.049       .  S
N77          C91   1.331       .  A
N78         N106   1.333       .  A
N78         Co96   2.109       .  S
H79         C102   1.081       .  S
H80          C97   1.081       .  S
N82         Co96   2.083       .  S
N83          N95   1.324       .  A
N83          N99   1.317       .  A
N83         Co92   2.080       .  S
C84          N88   1.346       .  A
C84          C98   1.469       .  S
C84         C450   1.479       .  S
C85         C104   1.461       .  S
C85          H89   1.082       .  S
N86          C97   1.350       .  A
N86         Co96   2.106       .  S
C90         N106   1.360       .  A
C90         C102   1.448       .  S
C90         C420   1.479       .  S
Co92       Cl103   2.458       .  S
N93         C104   1.349       .  A
C94         C503   1.463   1_545  S
Co96       Cl103   2.451       .  S
C104        C513   1.473       .  S
C107        N125   1.347       .  A
C107        C144   1.473       .  S
C107        C493   1.489       .  S
N108        N125   1.323       .  A
N108        N130   1.322       .  A
N108       Co145   2.084       .  S
C109        N134   1.341       .  A
C109        C147   1.461       .  S
C109        H154   1.081       .  S
H110        C151   1.080       .  S
C111        N135   1.338       .  A
C111        C115   1.461       .  S
C111        H140   1.081       .  S
Co112       N130   2.110       .  S
Co112       N120   2.104       .  S
Co112       N152   2.086       .  S
Co112       N128   2.099       .  S
Co112      Cl156   2.451       .  S
N113        C151   1.329       .  A
N113        N120   1.318       .  A
N113       Co114   2.058       .  S
Co114       N117   2.069       .  S
Co114       N134   2.079       .  S
Co114       N121   2.083       .  S
Co114      Cl156   2.453       .  S
C115        N153   1.348       .  A
C115        C380   1.470   1_565  S
N116        N123   1.317       .  A
N116        N146   1.318       .  A
N116       Co149   2.070       .  S
N117        N135   1.318       .  A
N117        N153   1.322       .  A
N118        C147   1.351       .  A
N118        N128   1.324       .  A
H119        C144   1.081       .  S
N120        N141   1.332       .  A
N121        N139   1.319       .  A
N121        N126   1.326       .  A
C122        N126   1.350       .  A
C122        C150   1.458       .  S
C122        C360   1.471       .  S
N123        C138   1.343       .  A
N123       Co145   2.074       .  S
C124        N152   1.337       .  A
C124        C127   1.459       .  S
C124        H158   1.081       .  S
C127        N148   1.354       .  A
C127        C390   1.480       .  S
N128        N134   1.322       .  A
N129        C155   1.347       .  A
N129        N131   1.321       .  A
N129       Co145   2.103       .  S
N130        C144   1.349       .  A
N131        N159   1.321       .  A
N131       Co149   2.081       .  S
H132        C155   1.081       .  S
H133        C150   1.082       .  S
N135       Co149   2.079       .  S
N136        N148   1.327       .  A
N136        N152   1.321       .  A
N136       Co145   2.089       .  S
C137        N141   1.360       .  A
C137        C151   1.452       .  S
C137        C370   1.483       .  S
C138        C157   1.461       .  S
C138        H142   1.081   1_455  S
N139        C150   1.340       .  A
N139       Co149   2.081       .  S
C143        N159   1.349       .  A
C143        C155   1.471       .  S
C143        C483   1.487       .  S
Co145      Cl156   2.463       .  S
N146        C157   1.346       .  A
C147        C400   1.476       .  S
Co149      Cl156   2.433       .  S
C157        C410   1.470   1_455  S
C160        N178   1.351       .  A
C160        C197   1.460       .  S
C160        C533   1.476       .  S
N161        N178   1.325       .  A
N161        N183   1.322       .  A
N161       Co198   2.086       .  S
C162        N187   1.332       .  A
C162        C200   1.451       .  S
C162        H207   1.081       .  S
H163        C204   1.081       .  S
C164        N188   1.337       .  A
C164        C168   1.457       .  S
C164        H193   1.082       .  S
Co165       N183   2.096       .  S
Co165       N173   2.089       .  S
Co165       N205   2.097       .  S
Co165       N181   2.111       .  S
Co165      Cl209   2.451       .  S
N166        C204   1.342       .  A
N166        N173   1.320       .  A
N166       Co167   2.081       .  S
Co167       N170   2.080       .  S
Co167       N187   2.068       .  S
Co167       N174   2.074       .  S
Co167      Cl209   2.458       .  S
C168        N206   1.350       .  A
C168        C373   1.469       .  S
N169        N176   1.319       .  A
N169        N199   1.322       .  A
N169       Co202   2.076       .  S
N170        N188   1.320       .  A
N170        N206   1.326       .  A
N171        C200   1.359       .  A
N171        N181   1.332       .  A
H172        C197   1.081       .  S
N173        N194   1.322       .  A
N174        N192   1.318       .  A
N174        N179   1.323       .  A
C175        N179   1.349       .  A
C175        C203   1.453       .  S
C175        C523   1.463   1_545  S
N176        C191   1.344       .  A
N176       Co198   2.088       .  S
C177        N205   1.348       .  A
C177        C180   1.469       .  S
C177        H211   1.081       .  S
C180        N201   1.344       .  A
C180        C350   1.476       .  S
N181        N187   1.320       .  A
N182        C208   1.342       .  A
N182        N184   1.318       .  A
N182       Co198   2.076       .  S
N183        C197   1.342       .  A
N184        N212   1.321       .  A
N184       Co202   2.076       .  S
H185        C208   1.081       .  S
H186        C203   1.081       .  S
N188       Co202   2.080       .  S
N189        N201   1.319       .  A
N189        N205   1.320       .  A
N189       Co198   2.067       .  S
C190        N194   1.349       .  A
C190        C204   1.463       .  S
C190        C473   1.477       .  S
C191        C210   1.465       .  S
C191        H195   1.081       .  S
N192        C203   1.336       .  A
N192       Co202   2.068       .  S
C196        N212   1.348       .  A
C196        C208   1.462       .  S
C196        C460   1.472       .  S
Co198      Cl209   2.457       .  S
N199        C210   1.348       .  A
C200        C363   1.481       .  S
Co202      Cl209   2.428       .  S
C210        C340   1.476       .  S
C213        N231   1.353       .  A
C213        C250   1.457       .  S
C213        C320   1.475   1_455  S
N214        N231   1.326       .  A
N214        N236   1.317       .  A
N214       Co251   2.085       .  S
C215        N240   1.342       .  A
C215        C253   1.462       .  S
C215        H260   1.081       .  S
H216        C257   1.081       .  S
C217        N241   1.349       .  A
C217        C221   1.470       .  S
C217        H246   1.082       .  S
Co218       N236   2.068       .  S
Co218       N226   2.070       .  S
Co218       N258   2.073       .  S
Co218       N234   2.074       .  S
Co218      Cl262   2.427       .  S
N219        C257   1.343       .  A
N219        N226   1.317       .  A
N219       Co220   2.077       .  S
Co220       N223   2.071       .  S
Co220       N240   2.082       .  S
Co220       N227   2.083       .  S
Co220      Cl262   2.455       .  S
C221        N259   1.344       .  A
C221        C343   1.479       .  S
N222        N229   1.320       .  A
N222        N252   1.332       .  A
N222       Co255   2.106       .  S
N223        N241   1.320       .  A
N223        N259   1.319       .  A
N224        C253   1.348       .  A
N224        N234   1.321       .  A
H225        C250   1.081       .  S
N226        N247   1.319       .  A
N227        N245   1.321       .  A
N227        N232   1.325       .  A
C228        N232   1.351       .  A
C228        C256   1.462       .  S
C228        C333   1.479       .  S
N229        C244   1.326       .  A
N229       Co251   2.054       .  S
C230        N258   1.334       .  A
C230        C233   1.458       .  S
C230        H264   1.082       .  S
C233        N254   1.350       .  A
C233        C423   1.471       .  S
N234        N240   1.319       .  A
N235        C261   1.342       .  A
N235        N237   1.321       .  A
N235       Co251   2.081       .  S
N236        C250   1.335       .  A
N237        N265   1.323       .  A
N237       Co255   2.095       .  S
H238        C261   1.081       .  S
H239        C256   1.081       .  S
N241       Co255   2.103       .  S
N242        N254   1.326       .  A
N242        N258   1.319       .  A
N242       Co251   2.076       .  S
C243        N247   1.346       .  A
C243        C257   1.463       .  S
C243        C383   1.469       .  S
C244        C263   1.448       .  S
C244        H248   1.081       .  S
N245        C256   1.339       .  A
N245       Co255   2.092       .  S
C249        N265   1.351       .  A
C249        C261   1.462       .  S
C249        C393   1.478       .  S
Co251      Cl262   2.454       .  S
N252        C263   1.358       .  A
C253        C353   1.471       .  S
Co255      Cl262   2.453       .  S
C263        C433   1.475       .  S
C266        N284   1.352       .  A
C266        C303   1.456       .  S
C266        C413   1.472       .  S
N267        N284   1.326       .  A
N267        N289   1.317       .  A
N267       Co304   2.082       .  S
C268        N293   1.347       .  A
C268        C306   1.469       .  S
C268        H313   1.081       .  S
H269        C310   1.081   1_545  S
C270        N294   1.347       .  A
C270        C274   1.465       .  S
C270        H299   1.082       .  S
Co271       N289   2.061       .  S
Co271       N279   2.089       .  S
Co271       N311   2.090       .  S
Co271       N287   2.075       .  S
Co271      Cl315   2.434       .  S
N272        C310   1.340       .  A
N272        N279   1.318       .  A
N272       Co273   2.069       .  S
Co273       N276   2.080       .  S
Co273       N293   2.098       .  S
Co273       N280   2.090       .  S
Co273      Cl315   2.459       .  S
C274        N312   1.346       .  A
C274        C453   1.475       .  S
N275        N282   1.320       .  A
N275        N305   1.332       .  A
N275       Co308   2.115       .  S
N276        N294   1.320       .  A
N276        N312   1.321       .  A
N277        C306   1.348       .  A
N277        N287   1.322       .  A
H278        C303   1.081       .  S
N279        N300   1.323       .  A
N280        N298   1.323       .  A
N280        N285   1.326       .  A
C281        N285   1.353       .  A
C281        C309   1.459       .  S
C281        C403   1.478       .  S
N282        C297   1.335       .  A
N282       Co304   2.071       .  S
C283        N311   1.340       .  A
C283        C286   1.464       .  S
C283        H317   1.082       .  S
C286        N307   1.352       .  A
C286        C543   1.472       .  S
N287        N293   1.320       .  A
N288        C314   1.345       .  A
N288        N290   1.320       .  A
N288       Co304   2.086       .  S
N289        C303   1.332       .  A
N290        N318   1.321       .  A
N290       Co308   2.083       .  S
H291        C314   1.081       .  S
H292        C309   1.081       .  S
N294       Co308   2.089       .  S
N295        N307   1.325       .  A
N295        N311   1.319       .  A
N295       Co304   2.088       .  S
C296        N300   1.350   1_545  A
C296        C310   1.459   1_545  S
C296        C323   1.472       .  S
C297        C316   1.454       .  S
C297        H301   1.081       .  S
N298        C309   1.337       .  A
N298       Co308   2.091       .  S
C302        N318   1.348       .  A
C302        C314   1.466       .  S
C302        C330   1.477       .  S
Co304      Cl315   2.461       .  S
N305        C316   1.360       .  A
C306        C443   1.483       .  S
Co308      Cl315   2.445       .  S
C316        C553   1.488       .  S
C319        H325   1.083       .  S
C319        C320   1.404       .  A
C319        C324   1.398       .  A
C320        C321   1.405       .  A
C321        H326   1.082       .  S
C321        C322   1.393       .  A
C322        H327   1.083       .  S
C322        C323   1.401       .  A
C323        C324   1.405       .  A
C324        H328   1.082       .  S
C329        H335   1.082       .  S
C329        C330   1.404       .  A
C329        C334   1.402       .  A
C330        C331   1.404       .  A
C331        H336   1.083       .  S
C331        C332   1.394       .  A
C332        H337   1.082       .  S
C332        C333   1.403       .  A
C333        C334   1.407       .  A
C334        H338   1.083       .  S
C339        H345   1.083       .  S
C339        C340   1.400       .  A
C339        C344   1.394       .  A
C340        C341   1.407       .  A
C341        H346   1.083       .  S
C341        C342   1.405       .  A
C342        H347   1.082       .  S
C342        C343   1.405       .  A
C343        C344   1.406       .  A
C344        H348   1.084       .  S
C349        H355   1.084       .  S
C349        C350   1.406       .  A
C349        C354   1.392   1_556  A
C350        C351   1.404   1_556  A
C351        H356   1.082       .  S
C351        C352   1.403       .  A
C352        H357   1.083       .  S
C352        C353   1.406       .  A
C353        C354   1.399       .  A
C354        H358   1.083       .  S
C359        H365   1.084       .  S
C359        C360   1.407   1_545  A
C359        C364   1.406       .  A
C360        C361   1.396   1_554  A
C361        H366   1.083       .  S
C361        C362   1.395       .  A
C362        H367   1.083       .  S
C362        C363   1.408   1_565  A
C363        C364   1.404   1_556  A
C364        H368   1.083       .  S
C369        H375   1.080       .  S
C369        C370   1.409   1_545  A
C369        C374   1.390       .  A
C370        C371   1.406       .  A
C371        H376   1.082       .  S
C371        C372   1.406       .  A
C372        H377   1.084       .  S
C372        C373   1.407   1_565  A
C373        C374   1.395       .  A
C374        H378   1.083       .  S
C379        H385   1.082       .  S
C379        C380   1.401       .  A
C379        C384   1.391       .  A
C380        C381   1.406       .  A
C381        H386   1.083       .  S
C381        C382   1.397       .  A
C382        H387   1.082       .  S
C382        C383   1.402       .  A
C383        C384   1.404       .  A
C384        H388   1.083       .  S
C389        H395   1.083       .  S
C389        C390   1.405       .  A
C389        C394   1.402       .  A
C390        C391   1.405       .  A
C391        H396   1.082       .  S
C391        C392   1.395       .  A
C392        H397   1.083       .  S
C392        C393   1.403       .  A
C393        C394   1.406       .  A
C394        H398   1.082       .  S
C399        H405   1.082       .  S
C399        C400   1.405       .  A
C399        C404   1.401       .  A
C400        C401   1.402       .  A
C401        H406   1.083       .  S
C401        C402   1.396       .  A
C402        H407   1.082       .  S
C402        C403   1.405       .  A
C403        C404   1.405       .  A
C404        H408   1.083       .  S
C409        H415   1.082       .  S
C409        C410   1.405       .  A
C409        C414   1.401       .  A
C410        C411   1.401       .  A
C411        H416   1.083       .  S
C411        C412   1.387       .  A
C412        H417   1.081       .  S
C412        C413   1.403       .  A
C413        C414   1.405       .  A
C414        H418   1.083       .  S
C419        H425   1.081       .  S
C419        C420   1.407   1_455  A
C419        C424   1.386   1_556  A
C420        C421   1.405   1_556  A
C421        H426   1.082       .  S
C421        C422   1.406       .  A
C422        H427   1.084       .  S
C422        C423   1.408   1_655  A
C423        C424   1.396       .  A
C424        H428   1.083   1_554  S
C429        H435   1.082       .  S
C429        C430   1.399       .  A
C429        C434   1.385       .  A
C430        C431   1.409   1_655  A
C431        H436   1.083       .  S
C431        C432   1.407       .  A
C432        H437   1.082       .  S
C432        C433   1.405       .  A
C433        C434   1.403   1_455  A
C434        H438   1.082       .  S
C439        H445   1.084       .  S
C439        C440   1.404   1_565  A
C439        C444   1.395       .  A
C440        C441   1.405   1_556  A
C441        H446   1.082       .  S
C441        C442   1.407       .  A
C442        H447   1.083       .  S
C442        C443   1.408   1_545  A
C443        C444   1.403   1_554  A
C444        H448   1.083       .  S
C449        H455   1.083       .  S
C449        C450   1.407   1_565  A
C449        C454   1.405       .  A
C450        C451   1.404       .  A
C451        H456   1.083       .  S
C451        C452   1.394       .  A
C452        H457   1.084       .  S
C452        C453   1.402   1_545  A
C453        C454   1.405       .  A
C454        H458   1.082       .  S
C459        H465   1.082       .  S
C459        C460   1.404       .  A
C459        C464   1.399       .  A
C460        C461   1.403       .  A
C461        H466   1.084       .  S
C461        C462   1.392       .  A
C462        H467   1.081       .  S
C462        C463   1.403       .  A
C463        C464   1.405       .  A
C464        H468   1.083       .  S
C469        H475   1.081       .  S
C469        C470   1.405       .  A
C469        C474   1.394       .  A
C470        C471   1.405       .  A
C471        H476   1.083       .  S
C471        C472   1.401       .  A
C472        H477   1.082       .  S
C472        C473   1.405       .  A
C473        C474   1.403       .  A
C474        H478   1.084       .  S
C479        H485   1.084       .  S
C479        C480   1.401   1_455  A
C479        C484   1.395       .  A
C480        C481   1.404       .  A
C481        H486   1.083       .  S
C481        C482   1.408   1_656  A
C482        H487   1.082       .  S
C482        C483   1.409       .  A
C483        C484   1.407   1_554  A
C484        H488   1.083       .  S
C489        H495   1.083       .  S
C489        C490   1.410   1_455  A
C489        C494   1.403       .  A
C490        C491   1.403       .  A
C491        H496   1.082       .  S
C491        C492   1.403       .  A
C492        H497   1.083       .  S
C492        C493   1.410   1_655  A
C493        C494   1.403       .  A
C494        H498   1.082       .  S
C499        H505   1.083       .  S
C499        C500   1.404       .  A
C499        C504   1.395       .  A
C500        C501   1.401       .  A
C501        H506   1.083       .  S
C501        C502   1.394       .  A
C502        H507   1.084       .  S
C502        C503   1.403       .  A
C503        C504   1.401       .  A
C504        H508   1.083       .  S
C509        H515   1.083       .  S
C509        C510   1.403       .  A
C509        C514   1.400       .  A
C510        C511   1.404       .  A
C511        H516   1.083       .  S
C511        C512   1.397       .  A
C512        H517   1.083       .  S
C512        C513   1.403       .  A
C513        C514   1.405       .  A
C514        H518   1.083       .  S
C519        H525   1.083       .  S
C519        C520   1.402       .  A
C519        C524   1.394       .  A
C520        C521   1.401       .  A
C521        H526   1.084       .  S
C521        C522   1.393       .  A
C522        H527   1.083       .  S
C522        C523   1.402       .  A
C523        C524   1.402       .  A
C524        H528   1.083       .  S
C529        H535   1.083       .  S
C529        C530   1.404       .  A
C529        C534   1.397       .  A
C530        C531   1.403       .  A
C531        H536   1.083       .  S
C531        C532   1.402       .  A
C532        H537   1.083       .  S
C532        C533   1.406       .  A
C533        C534   1.403       .  A
C534        H538   1.083       .  S
C539        H545   1.081       .  S
C539        C540   1.407   1_554  A
C539        C544   1.395       .  A
C540        C541   1.408       .  A
C541        H546   1.083       .  S
C541        C542   1.405       .  A
C542        H547   1.083       .  S
C542        C543   1.402   1_556  A
C543        C544   1.400       .  A
C544        H548   1.084       .  S
C549        H555   1.083       .  S
C549        C550   1.402       .  A
C549        C554   1.400       .  A
C550        C551   1.411       .  A
C551        H556   1.082       .  S
C551        C552   1.403       .  A
C552        H557   1.082       .  S
C552        C553   1.402       .  A
C553        C554   1.410       .  A
C554        H558   1.082       .  S
