geometry optimzed in LAMMPS
_audit_creation_date              2020-11-30 
_audit_creation_method            'lammps2cif' 
_symmetry_space_group_name_H-M    'P1' 
_symmetry_Int_Tables_number       1 
_symmetry_cell_setting            triclinic 
loop_ 
_symmetry_equiv_pos_as_xyz 
  x,y,z 
_cell_length_a                    34.09214001181316 
_cell_length_b                    26.72539623927874 
_cell_length_c                    27.192782565180053 
_cell_angle_alpha                 90.8114613797185 
_cell_angle_beta                  117.93850444282721 
_cell_angle_gamma                 89.94452536192024 
loop_ 
_atom_site_label 
_atom_site_type_symbol 
_atom_site_fract_x 
_atom_site_fract_y 
_atom_site_fract_z 
_atom_site_charge 
C1          C  0.87371391  0.18479253  0.69580756     0.02700
C2          C  0.89396282  0.21887319  0.67592131    -0.13450
C3          C  0.86794960  0.24859597  0.62985959     0.00200
C4          C  0.82133397  0.24542499  0.60510103    -0.11970
C5          C  0.80109071  0.21165749  0.62546165     0.02700
C6          C  0.82739575  0.18122467  0.67015944    -0.11390
H7          H  0.92987196  0.22093528  0.69490531     0.08290
H8          H  0.80103714  0.26841406  0.56971470     0.05820
H9          H  0.81164709  0.15420023  0.68478717     0.05670
O10         O  0.48917240  0.25165487  0.31989129    -0.81320
O11         O  0.43495191  0.13453000  0.48276529    -0.66010
O12         O  0.46484322  0.22969995  0.40233101    -1.12610
C13         C  0.61217376  0.18586702  0.53643045     1.05570
O14         O  0.48065234  0.17276057  0.56161912    -0.79210
O15         O  0.54452246  0.24068624  0.57429468    -0.66800
Ni16       Ni  0.43897753  0.22166355  0.32322701     1.34870
C17         C  0.54356380  0.27688158  0.54413667     0.84310
O18         O  0.38691367  0.19309402  0.39787950    -0.79750
O19         O  0.38343983  0.19369679  0.31410386    -0.90030
C20         C  0.44859103  0.14264266  0.53432842     0.83880
O21         O  0.46374343  0.15684652  0.32985663    -0.68230
O22         O  0.59542342  0.16775104  0.56577626    -0.87520
C23         C  0.45555936  0.11941575  0.35190881     0.84710
C24         C  0.36510465  0.18983505  0.34529109     1.06280
H25         H  0.51718819  0.13687141  0.47101383     0.38080
O26         O  0.51056544  0.16936355  0.48120823    -1.10180
O27         O  0.53311164  0.27233059  0.49308991    -0.66830
Ni28       Ni  0.52758211  0.21766221  0.44451719     1.26350
O29         O  0.44432568  0.12510447  0.39043218    -0.67060
O30         O  0.58944857  0.20462723  0.48840408    -0.79350
C31         C  0.52553236  0.27232321  0.35422501     0.84090
O32         O  0.54317568  0.26596989  0.40614126    -0.66530
Ni33       Ni  0.53710820  0.17027001  0.56057528     1.27450
Ni34       Ni  0.44858293  0.18079402  0.44011984     1.26060
H35         H  0.45760863  0.26261742  0.41077412     0.38640
C36         C  0.11163202  0.20925555  0.19929857     0.02700
C37         C  0.14988027  0.18630795  0.20195727    -0.13450
C38         C  0.17597213  0.15529329  0.24626281     0.00200
C39         C  0.15694143  0.13283314  0.27600161    -0.11970
C40         C  0.11562691  0.14925065  0.26885879     0.02700
C41         C  0.09591547  0.19117358  0.23547693    -0.11390
H42         H  0.16273885  0.19707174  0.17407887     0.08290
H43         H  0.17536827  0.10497773  0.30678822     0.05820
H44         H  0.06862218  0.20878371  0.23840974     0.05670
C45         C  0.60924486  0.44798386  0.18536813     0.02700
C46         C  0.58863968  0.42741686  0.21514232    -0.13450
C47         C  0.61172691  0.39375951  0.25868505     0.00200
C48         C  0.65736451  0.38699650  0.27812462    -0.11970
C49         C  0.67826379  0.40740687  0.24948244     0.02700
C50         C  0.65276809  0.43229837  0.19965803    -0.11390
H51         H  0.55520283  0.43764397  0.20552778     0.08290
H52         H  0.67657369  0.36573378  0.31547257     0.05820
H53         H  0.66875049  0.44429905  0.17553929     0.05670
O54         O  0.99311498  0.50209791  0.32856792    -0.81320
O55         O  0.94345611  0.37006801  0.48382203    -0.66010
O56         O  0.96550134  0.47683516  0.40815255    -1.12610
C57         C  0.11626933  0.44614212  0.53846659     1.05570
O58         O  0.99005203  0.39941832  0.56687305    -0.79210
O59         O  0.04102694  0.98279454  0.57826848    -0.66800
Ni60       Ni  0.94277277  0.47020088  0.32980795     1.34870
C61         C  0.03439306  0.02257450  0.55026121     0.84310
O62         O  0.89120430  0.43133052  0.40347001    -0.79750
O63         O  0.88727773  0.43957740  0.31951115    -0.90030
C64         C  0.95769508  0.37081494  0.53599954     0.83880
O65         O  0.97312942  0.40881483  0.33934473    -0.68230
O66         O  0.10204725  0.42365044  0.56803318    -0.87520
C67         C  0.96011355  0.36939510  0.35187857     0.84710
C68         C  0.86907575  0.43254921  0.35072235     1.06280
H69         H  0.02491658  0.38594677  0.47033294     0.38080
O70         O  0.01633860  0.41580900  0.48329713    -1.10180
O71         O  0.02733100  0.02169337  0.50031791    -0.66830
Ni72       Ni  0.02843328  0.47195783  0.44974958     1.26350
O73         O  0.94890170  0.36983346  0.39051974    -0.67060
O74         O  0.09134724  0.46599863  0.49196690    -0.79350
C75         C  0.02519030  0.02937682  0.36228869     0.84090
O76         O  0.03848842  0.02718549  0.41393088    -0.66530
Ni77       Ni  0.04446813  0.41293408  0.56301357     1.27450
Ni78       Ni  0.95348590  0.42223646  0.44407971     1.26060
H79         H  0.95489056  0.00765858  0.41647754     0.38640
C80         C  0.37758739  0.44594846  0.70122964     0.02700
C81         C  0.39711693  0.98435415  0.68499649    -0.13450
C82         C  0.37162655  0.01227434  0.63645698     0.00200
C83         C  0.32546661  0.00308645  0.60724487    -0.11970
C84         C  0.30539010  0.46809095  0.62669060     0.02700
C85         C  0.33164696  0.43902089  0.67274490    -0.11390
H86         H  0.43246487  0.99090905  0.70890889     0.08290
H87         H  0.30494595  0.02324484  0.56956304     0.05820
H88         H  0.31626049  0.41059382  0.68625584     0.05670
C89         C  0.87915514  0.20681902  0.20124874     0.02700
C90         C  0.89323761  0.17146946  0.17458609    -0.13450
C91         C  0.86194993  0.14305024  0.12929521     0.00200
C92         C  0.81646379  0.14993358  0.11114207    -0.11970
C93         C  0.80228818  0.18566175  0.13766199     0.02700
C94         C  0.83374008  0.21354049  0.18286620    -0.11390
H95         H  0.92831946  0.16813472  0.18693313     0.08290
H96         H  0.79225726  0.12914219  0.07520436     0.05820
H97         H  0.82276722  0.24243450  0.20191841     0.05670
O98         O  0.47584302  0.22820138  0.05878553    -0.81320
O99         O  0.54606768  0.13310027  0.90685367    -0.66010
O100        O  0.51323092  0.22958891  0.98520234    -1.12610
C101        C  0.36640386  0.19404332  0.84697738     1.05570
O102        O  0.49778766  0.16033347  0.82331424    -0.79210
O103        O  0.44496844  0.23972444  0.81612200    -0.66800
Ni104      Ni  0.53452488  0.22695657  0.06336499     1.34870
C105        C  0.44725516  0.27826184  0.84532188     0.84310
O106        O  0.59304860  0.19449683  0.99596624    -0.79750
O107        O  0.59436908  0.22762708  0.07372292    -0.90030
C108        C  0.53051825  0.13305706  0.85429979     0.83880
O109        O  0.53693443  0.15566606  0.07204244    -0.68230
O110        O  0.38282706  0.17647735  0.81680081    -0.87520
C111        C  0.53881878  0.11943866  0.04244887     0.84710
C112        C  0.61365225  0.21297100  0.04555779     1.06280
H113        H  0.46057107  0.13799779  0.91408211     0.38080
O114        O  0.46821490  0.16978902  0.90424523    -1.10180
O115        O  0.45080176  0.27507143  0.89390450    -0.66830
Ni116      Ni  0.45153876  0.22075527  0.94077793     1.26350
O117        O  0.53464028  0.12470531  0.99394198    -0.67060
O118        O  0.38952797  0.21078256  0.89618110    -0.79350
C119        C  0.44616975  0.26023400  0.03144288     0.84090
O120        O  0.43837109  0.26966049  0.98226067    -0.66530
Ni121      Ni  0.44188183  0.16936331  0.82472654     1.27450
Ni122      Ni  0.53096819  0.18084898  0.94834582     1.26060
H123        H  0.52178005  0.26198639  0.97789187     0.38640
C124        C  0.10314025  0.18945494  0.69827903     0.02700
C125        C  0.14916446  0.18625020  0.71881322    -0.13450
C126        C  0.17792954  0.21712537  0.76295802     0.00200
C127        C  0.16063003  0.25142299  0.78717164    -0.11970
C128        C  0.11453430  0.25486692  0.76691799     0.02700
C129        C  0.08583225  0.22418811  0.72203599    -0.11390
H130        H  0.16269400  0.15899298  0.70100596     0.08290
H131        H  0.18291339  0.27460346  0.82221028     0.05820
H132        H  0.05025296  0.22637589  0.70670405     0.05670
C133        C  0.60807414  0.44536135  0.68043608     0.02700
C134        C  0.58674146  0.47793452  0.70164198    -0.13450
C135        C  0.61067463  0.00189284  0.75420417     0.00200
C136        C  0.65648898  0.99296214  0.78547567    -0.11970
C137        C  0.67796613  0.46067026  0.76502467     0.02700
C138        C  0.65341909  0.43569044  0.71414859    -0.11390
H139        H  0.55158085  0.98449743  0.67758542     0.08290
H140        H  0.67560612  0.01178949  0.82529901     0.05820
H141        H  0.67049458  0.40895482  0.70079080     0.05670
C142        C  0.38237633  0.45898440  0.20018720     0.02700
C143        C  0.39662127  0.42245224  0.17467803    -0.13450
C144        C  0.36567837  0.39248901  0.13045424     0.00200
C145        C  0.31996052  0.40009429  0.11194871    -0.11970
C146        C  0.30551579  0.43844819  0.13546207     0.02700
C147        C  0.33685661  0.46738107  0.17961383    -0.11390
H148        H  0.43188492  0.41716713  0.18952165     0.08290
H149        H  0.29561608  0.37668005  0.07892972     0.05820
H150        H  0.32570519  0.49660356  0.19809549     0.05670
O151        O  0.98260558  0.49724028  0.06784663    -0.81320
O152        O  0.04809444  0.38379926  0.91807670    -0.66010
O153        O  0.01469839  0.48564662  0.98931443    -1.12610
C154        C  0.86753283  0.43608219  0.85973255     1.05570
O155        O  0.99743912  0.40453314  0.83312918    -0.79210
O156        O  0.93801348  0.97879039  0.81794562    -0.66800
Ni157      Ni  0.03941350  0.48917931  0.06839136     1.34870
C158        C  0.94082139  0.01949302  0.84408700     0.84310
O159        O  0.09441783  0.45162109  0.99740387    -0.79750
O160        O  0.09867500  0.48373858  0.07670890    -0.90030
C161        C  0.03236370  0.38109905  0.86574420     0.83880
O162        O  0.03817512  0.41908716  0.08120639    -0.68230
O163        O  0.88375301  0.41359098  0.83172085    -0.87520
C164        C  0.04307662  0.38124681  0.05586905     0.84710
C165        C  0.11659990  0.46871267  0.04714472     1.06280
H166        H  0.96527359  0.38783040  0.93059459     0.38080
O167        O  0.97058928  0.41847029  0.91616180    -1.10180
O168        O  0.94906118  0.02099444  0.89471807    -0.66830
Ni169      Ni  0.95293670  0.47214238  0.94791212     1.26350
O170        O  0.04122888  0.38324248  0.00830005    -0.67060
O171        O  0.89085263  0.45847301  0.90595541    -0.79350
C172        C  0.95005342  0.02364899  0.03468872     0.84090
O173        O  0.93847558  0.02474045  0.98333749    -0.66530
Ni174      Ni  0.94211412  0.40995865  0.83683471     1.27450
Ni175      Ni  0.03274024  0.43432942  0.95553910     1.26060
H176        H  0.02127084  0.01728549  0.97808367     0.38640
C177        C  0.19148018  0.44885134  0.12728116    -0.02270
C178        C  0.16594769  0.46810775  0.07304023     0.07410
C179        C  0.18768432  0.48208216  0.04198593    -0.02390
C180        C  0.23357020  0.47380644  0.06325419    -0.02390
C181        C  0.25759270  0.44902367  0.11412639     0.07540
C182        C  0.23656604  0.43731397  0.14643497    -0.02580
Br183      Br  0.26910486  0.40306677  0.21599392    -0.01130
Br184      Br  0.16551606  0.43617499  0.17584165    -0.01200
Br185      Br  0.26402682  0.49881431  0.02410431    -0.01160
Br186      Br  0.15535472  0.51539460  0.97169842    -0.01150
C187        C  0.79570428  0.91846663  0.86139186    -0.02270
C188        C  0.81883347  0.44019429  0.83540340     0.07410
C189        C  0.79591758  0.47071729  0.78862542    -0.02390
C190        C  0.75049219  0.48004203  0.76852701    -0.02390
C191        C  0.72691609  0.45645468  0.79270988     0.07540
C192        C  0.74953673  0.92575745  0.83930494    -0.02580
Br193      Br  0.71710702  0.89323894  0.87201922    -0.01130
Br194      Br  0.82713388  0.87761639  0.92605746    -0.01200
Br195      Br  0.72074103  0.52703847  0.70908342    -0.01160
Br196      Br  0.82660070  0.50092824  0.75217542    -0.01150
C197        C  0.08129056  0.26766933  0.83060531    -0.02270
C198        C  0.09612688  0.28816302  0.79474283     0.07410
C199        C  0.09249407  0.33997762  0.78479802    -0.02390
C200        C  0.07307964  0.37094579  0.80967889    -0.02390
C201        C  0.05538041  0.34978938  0.84232489     0.07540
C202        C  0.05991056  0.29810127  0.85314865    -0.02580
Br203      Br  0.03530951  0.26835996  0.89715700    -0.01130
Br204      Br  0.09189958  0.19825625  0.85081923    -0.01200
Br205      Br  0.07356394  0.44247671  0.80223352    -0.01160
Br206      Br  0.11375684  0.36830735  0.73674303    -0.01150
C207        C  0.29360276  0.22839510  0.77753512    -0.02270
C208        C  0.31780391  0.19725614  0.82339318     0.07410
C209        C  0.29608751  0.17331158  0.84986812    -0.02390
C210        C  0.25032415  0.18033922  0.83043652    -0.02390
C211        C  0.22627007  0.21158548  0.78481718     0.07540
C212        C  0.24784970  0.23540695  0.75821641    -0.02580
Br213      Br  0.21467751  0.27844951  0.69595974    -0.01130
Br214      Br  0.32348866  0.26397268  0.74319178    -0.01200
Br215      Br  0.22024723  0.14673670  0.86571348    -0.01160
Br216      Br  0.32887192  0.13001253  0.91202879    -0.01150
C217        C  0.55448542  0.01861335  0.78842931    -0.02270
C218        C  0.58842610  0.03649498  0.77707873     0.07410
C219        C  0.60287469  0.08690090  0.79083177    -0.02390
C220        C  0.58453541  0.11828918  0.81692620    -0.02390
C221        C  0.55074170  0.10026502  0.82798033     0.07540
C222        C  0.53538513  0.05063871  0.81298496    -0.02580
Br223      Br  0.48836510  0.02649424  0.82717715    -0.01130
Br224      Br  0.53593456  0.94934468  0.77412091    -0.01200
Br225      Br  0.60597867  0.18595059  0.83839886    -0.01160
Br226      Br  0.64682874  0.11395249  0.77246090    -0.01150
C227        C  0.43484497  0.28721266  0.11474313    -0.02270
C228        C  0.42077400  0.28717825  0.05649664     0.07410
C229        C  0.38309234  0.31629663  0.02225133    -0.02390
C230        C  0.36657754  0.35220304  0.04609485    -0.02390
C231        C  0.38177498  0.35359556  0.10411583     0.07540
C232        C  0.41364982  0.31828591  0.13746395    -0.02580
Br233      Br  0.42685151  0.31093415  0.21422055    -0.01130
Br234      Br  0.48289467  0.24571950  0.16549751    -0.01200
Br235      Br  0.32601789  0.40191038  0.99837624    -0.01160
Br236      Br  0.34984382  0.30460137  0.94265413    -0.01150
C237        C  0.73083988  0.22016472  0.06419114    -0.02270
C238        C  0.75464333  0.19685713  0.11605701     0.07410
C239        C  0.73358221  0.18676635  0.14870004    -0.02390
C240        C  0.68820806  0.19722968  0.12821480    -0.02390
C241        C  0.66295378  0.21475005  0.07311086     0.07540
C242        C  0.68506614  0.22886266  0.04264232    -0.02580
Br243      Br  0.65334856  0.26345866  0.97317428    -0.01130
Br244      Br  0.76122925  0.24152541  0.02335821    -0.01200
Br245      Br  0.66136239  0.18430956  0.17569636    -0.01160
Br246      Br  0.76637595  0.15545837  0.22024536    -0.01150
C247        C  0.90196140  0.02944331  0.08135078    -0.02270
C248        C  0.92437628  0.05306794  0.05558283     0.07410
C249        C  0.92073644  0.10514656  0.04747386    -0.02390
C250        C  0.89578199  0.13355798  0.06637473    -0.02390
C251        C  0.87754695  0.11088786  0.09751710     0.07540
C252        C  0.87872037  0.05846343  0.10272602    -0.02580
Br253      Br  0.84940403  0.02675837  0.14005149    -0.01130
Br254      Br  0.90263267  0.45755716  0.08649132    -0.01200
Br255      Br  0.88435193  0.20306447  0.04696757    -0.01160
Br256      Br  0.95308131  0.13851440  0.01494735    -0.01150
C257        C  0.40611670  0.41101838  0.79715106    -0.02270
C258        C  0.40471600  0.40951013  0.74462561     0.07410
C259        C  0.42474600  0.36944575  0.73095101    -0.02390
C260        C  0.44662085  0.33172160  0.76955269    -0.02390
C261        C  0.44189890  0.32843722  0.81849133     0.07540
C262        C  0.42415421  0.37053225  0.83395339    -0.02580
Br263      Br  0.42324817  0.37445863  0.90428137    -0.01130
Br264      Br  0.37971384  0.46706294  0.81618246    -0.01200
Br265      Br  0.48425620  0.28602096  0.75507490    -0.01160
Br266      Br  0.41531003  0.36064085  0.65587551    -0.01150
C267        C  0.18855444  0.41468745  0.54826184    -0.02270
C268        C  0.16448376  0.45131398  0.56031070     0.07410
C269        C  0.18642979  0.99358086  0.59321963    -0.02390
C270        C  0.23245082  0.99931346  0.61409199    -0.02390
C271        C  0.25659184  0.46325674  0.60120264     0.07540
C272        C  0.23465073  0.42065984  0.56863731    -0.02580
Br273      Br  0.26784727  0.37036196  0.55259965    -0.01130
Br274      Br  0.15827311  0.35614537  0.50471221    -0.01200
Br275      Br  0.26284171  0.05488939  0.66351675    -0.01160
Br276      Br  0.15357406  0.04314586  0.61087262    -0.01150
C277        C  0.03439888  0.07439575  0.62805340    -0.02270
C278        C  0.03843155  0.07221957  0.57876854     0.07410
C279        C  0.05275995  0.11620404  0.56263249    -0.02390
C280        C  0.07098843  0.15660170  0.60064593    -0.02390
C281        C  0.07412549  0.15391547  0.65396257     0.07540
C282        C  0.05363509  0.11400328  0.66647873    -0.02580
Br283      Br  0.05580414  0.11049636  0.73836852    -0.01130
Br284      Br  0.00052058  0.02445287  0.64180429    -0.01200
Br285      Br  0.09350482  0.21526788  0.58103675    -0.01160
Br286      Br  0.04839202  0.12332091  0.48977310    -0.01150
C287        C  0.93481514  0.33086445  0.25680603    -0.02270
C288        C  0.95159845  0.32454330  0.31512066     0.07090
C289        C  0.95331594  0.27581937  0.33561668    -0.02390
C290        C  0.93195154  0.23568166  0.29828645    -0.02390
C291        C  0.91042286  0.24395418  0.24061878     0.07540
C292        C  0.91413862  0.29061224  0.22004101    -0.02580
Br293      Br  0.88677891  0.30063850  0.14055521    -0.01130
Br294      Br  0.93502184  0.39486692  0.22416165    -0.01200
Br295      Br  0.92995239  0.17007111  0.32563753    -0.01160
Br296      Br  0.98651214  0.26359413  0.41428231    -0.01150
C297        C  0.75218561  0.38194808  0.25797652    -0.02270
C298        C  0.72728910  0.41135685  0.27647999     0.07410
C299        C  0.74887529  0.44740449  0.31931267    -0.02390
C300        C  0.79506140  0.45450716  0.34303404    -0.02390
C301        C  0.82026982  0.42510732  0.32470757     0.07540
C302        C  0.79861518  0.38856434  0.28222210    -0.02580
Br303      Br  0.83234721  0.34581500  0.25863755    -0.01130
Br304      Br  0.72253068  0.33202884  0.20016710    -0.01200
Br305      Br  0.82315050  0.50693548  0.39840483    -0.01160
Br306      Br  0.71487989  0.48851938  0.34453124    -0.01150
C307        C  0.54212027  0.49166358  0.10606751    -0.02270
C308        C  0.58855130  0.48934195  0.14394867     0.07410
C309        C  0.61618310  0.02777732  0.14110694    -0.02390
C310        C  0.59896610  0.06171368  0.09779999    -0.02390
C311        C  0.55333428  0.07033764  0.06939976     0.07540
C312        C  0.52441712  0.03480761  0.07301713    -0.02580
Br313      Br  0.46132462  0.04393169  0.02990809    -0.01130
Br314      Br  0.50273379  0.43571371  0.09435815    -0.01200
Br315      Br  0.63769913  0.08978385  0.07196828    -0.01160
Br316      Br  0.67536785  0.54293563  0.19998605    -0.01150
C317        C  0.02860320  0.30672997  0.10070790    -0.02270
C318        C  0.05665579  0.33374332  0.08594617     0.07410
C319        C  0.10077625  0.31869984  0.10596231    -0.02390
C320        C  0.11932765  0.28531776  0.14988577    -0.02390
C321        C  0.09143888  0.25350553  0.16170979     0.07540
C322        C  0.04486194  0.26404535  0.13456376    -0.02580
Br323      Br  0.00138949  0.22127221  0.13919324    -0.01130
Br324      Br  0.96723506  0.32641517  0.07051033    -0.01200
Br325      Br  0.18246817  0.29319211  0.19868341    -0.01160
Br326      Br  0.13577446  0.34060401  0.07140105    -0.01150
C327        C  0.05091908  0.09932102  0.25961706    -0.02270
C328        C  0.09229768  0.12163223  0.29441837     0.07410
C329        C  0.11195419  0.11448999  0.35230216    -0.02390
C330        C  0.09163147  0.08252572  0.37465109    -0.02390
C331        C  0.04811601  0.06314266  0.34010030     0.07540
C332        C  0.02722745  0.07469871  0.28259967    -0.02580
Br333      Br  0.96537697  0.06036067  0.23357332    -0.01130
Br334      Br  0.02874366  0.09644767  0.17988492    -0.01200
Br335      Br  0.12670734  0.06338668  0.45141504    -0.01160
Br336      Br  0.16676993  0.14862194  0.40133660    -0.01150
C337        C  0.29684459  0.14083794  0.27997075    -0.02270
C338        C  0.31674443  0.18023911  0.31947005     0.07410
C339        C  0.29030364  0.21010610  0.33524844    -0.02390
C340        C  0.24463784  0.20036413  0.31245640    -0.02390
C341        C  0.22469748  0.16142583  0.27258278     0.07540
C342        C  0.25077813  0.13172578  0.25634372    -0.02580
Br343      Br  0.22317027  0.07855001  0.20214829    -0.01130
Br344      Br  0.33243290  0.09791780  0.25935729    -0.01200
Br345      Br  0.20929221  0.24163567  0.33546187    -0.01160
Br346      Br  0.31584366  0.26677317  0.38542314    -0.01150
C347        C  0.53269191  0.35013075  0.59388603    -0.02270
C348        C  0.55666194  0.32679285  0.56979842     0.07410
C349        C  0.59172602  0.35348298  0.56745997    -0.02390
C350        C  0.60595595  0.39950576  0.59657898    -0.02390
C351        C  0.58354756  0.41866335  0.62524021     0.07540
C352        C  0.54011965  0.40103272  0.60694463    -0.02580
Br353      Br  0.49800279  0.43599946  0.54275682    -0.01130
Br354      Br  0.48066437  0.31938249  0.59071030    -0.01200
Br355      Br  0.65311744  0.43734248  0.59414609    -0.01160
Br356      Br  0.62234260  0.32628044  0.52888809    -0.01150
C357        C  0.43368271  0.02720040  0.33887582    -0.02270
C358        C  0.45333216  0.06859076  0.32629371     0.07410
C359        C  0.46231152  0.06347224  0.28042464    -0.02390
C360        C  0.44107530  0.52575637  0.23989093    -0.02390
C361        C  0.41427149  0.49010984  0.24763744     0.07540
C362        C  0.41430730  0.48805716  0.29939959    -0.02580
Br363      Br  0.38667264  0.43192409  0.31522603    -0.01130
Br364      Br  0.43259163  0.02261539  0.40910059    -0.01200
Br365      Br  0.44551000  0.52616860  0.17159284    -0.01160
Br366      Br  0.50442534  0.10640256  0.27256095    -0.01150
C367        C  0.39293552  0.12816081  0.56944422    -0.02270
C368        C  0.43031391  0.11288595  0.56431448     0.07410
C369        C  0.45103936  0.06781450  0.58759654    -0.02390
C370        C  0.43126010  0.03440880  0.60910887    -0.02390
C371        C  0.39321492  0.04857280  0.61429376     0.07540
C372        C  0.37556028  0.09716927  0.59651498    -0.02580
Br373      Br  0.32990128  0.12363909  0.61220332    -0.01130
Br374      Br  0.36675004  0.19220876  0.54073965    -0.01200
Br375      Br  0.45456515  0.96800172  0.62566804    -0.01160
Br376      Br  0.50790640  0.05404369  0.59127048    -0.01150
C377        C  0.57157730  0.28143769  0.30628344    -0.02270
C378        C  0.54863459  0.30405967  0.33204277     0.07410
C379        C  0.54648198  0.35665966  0.33459183    -0.02390
C380        C  0.56721017  0.38658881  0.31101461    -0.02390
C381        C  0.58873188  0.36372713  0.28307655     0.07540
C382        C  0.59003400  0.31092668  0.28000658    -0.02580
Br383      Br  0.61495944  0.27824420  0.23722755    -0.01130
Br384      Br  0.57961213  0.20993871  0.30944638    -0.01200
Br385      Br  0.56745455  0.45847776  0.31909691    -0.01160
Br386      Br  0.51509946  0.38747687  0.37039988    -0.01150
C387        C  0.68553627  0.21545562  0.61141061    -0.02270
C388        C  0.66090654  0.18886812  0.56071580     0.07410
C389        C  0.68233242  0.17089638  0.53051848    -0.02390
C390        C  0.72814280  0.17919073  0.55103873    -0.02390
C391        C  0.75235910  0.20689689  0.60078587     0.07540
C392        C  0.73089472  0.22527493  0.63066636    -0.02580
Br393      Br  0.76355909  0.26541220  0.69732215    -0.01130
Br394      Br  0.65731959  0.24067049  0.65397030    -0.01200
Br395      Br  0.75796732  0.15099157  0.51205378    -0.01160
Br396      Br  0.64929251  0.13310331  0.46217455    -0.01150
C397        C  0.89454865  0.14829966  0.78850740    -0.02270
C398        C  0.89992142  0.14925945  0.74032146     0.07410
C399        C  0.92387754  0.11106576  0.73042131    -0.02390
C400        C  0.94159341  0.07157299  0.76808048    -0.02390
C401        C  0.93149700  0.06707392  0.81275210     0.07540
C402        C  0.90751326  0.10599908  0.82250428    -0.02580
Br403      Br  0.88467350  0.09908011  0.87499160    -0.01130
Br404      Br  0.86757421  0.20445562  0.80647109    -0.01200
Br405      Br  0.97860265  0.02320263  0.75682064    -0.01160
Br406      Br  0.92789899  0.10962283  0.66190298    -0.01150
C407        C  0.88813769  0.26671530  0.55461630    -0.02270
C408        C  0.88991535  0.28043591  0.60568696     0.07410
C409        C  0.91491200  0.32246877  0.63527369    -0.02390
C410        C  0.93829187  0.35087320  0.61404917    -0.02390
C411        C  0.93489544  0.33920871  0.56078093     0.07540
C412        C  0.90937135  0.29625248  0.53145360    -0.02580
Br413      Br  0.90396684  0.27413540  0.46046991    -0.01130
Br414      Br  0.85881778  0.20494016  0.51802180    -0.01200
Br415      Br  0.97488162  0.40467187  0.66078355    -0.01160
Br416      Br  0.91645001  0.34136547  0.70520513    -0.01150
C417        C  0.87371482  0.68481821  0.69577442     0.02700
C418        C  0.89395933  0.71890104  0.67588475    -0.13450
C419        C  0.86794196  0.74862369  0.62982475     0.00200
C420        C  0.82132681  0.74544915  0.60507050    -0.11970
C421        C  0.80108816  0.71167787  0.62543308     0.02700
C422        C  0.82739698  0.68124626  0.67013003    -0.11390
H423        H  0.92986822  0.72096600  0.69486568     0.08290
H424        H  0.80102678  0.76843793  0.56968535     0.05820
H425        H  0.81165164  0.65422006  0.68476041     0.05670
O426        O  0.48916436  0.75164005  0.31987462    -0.81320
O427        O  0.43495995  0.63451048  0.48276314    -0.66010
O428        O  0.46483837  0.72968309  0.40231786    -1.12610
C429        C  0.61217551  0.68586880  0.53641383     1.05570
O430        O  0.48066172  0.67274624  0.56161304    -0.79210
O431        O  0.54452761  0.74067644  0.57428381    -0.66800
Ni432      Ni  0.43897252  0.72164309  0.32321425     1.34870
C433        C  0.54356083  0.77687278  0.54412265     0.84310
O434        O  0.38691374  0.69306679  0.39787209    -0.79750
O435        O  0.38343779  0.69367009  0.31409506    -0.90030
C436        C  0.44860131  0.64262595  0.53432639     0.83880
O437        O  0.46374463  0.65682902  0.32984767    -0.68230
O438        O  0.59542918  0.66774648  0.56576108    -0.87520
C439        C  0.45556842  0.61939744  0.35190644     0.84710
C440        C  0.36510389  0.68980651  0.34528370     1.06280
H441        H  0.51719486  0.63686228  0.47100387     0.38080
O442        O  0.51056911  0.66935301  0.48119791    -1.10180
O443        O  0.53310239  0.77232216  0.49307394    -0.66830
Ni444      Ni  0.52757868  0.71765486  0.44450300     1.26350
O445        O  0.44433321  0.62508466  0.39042855    -0.67060
O446        O  0.58944690  0.70462950  0.48838856    -0.79350
C447        C  0.52552186  0.77231465  0.35420649     0.84090
O448        O  0.54316516  0.76596602  0.40612347    -0.66530
Ni449      Ni  0.53711571  0.67026014  0.56056494     1.27450
Ni450      Ni  0.44858483  0.68077523  0.44011178     1.26060
H451        H  0.45760032  0.76259953  0.41075888     0.38640
C452        C  0.11162832  0.70920613  0.19931106     0.02700
C453        C  0.14987430  0.68625954  0.20196095    -0.13450
C454        C  0.17597287  0.65524757  0.24626640     0.00200
C455        C  0.15694889  0.63278600  0.27601238    -0.11970
C456        C  0.11563683  0.64920285  0.26887917     0.02700
C457        C  0.09592162  0.69112562  0.23549947    -0.11390
H458        H  0.16272607  0.69702206  0.17407524     0.08290
H459        H  0.17537948  0.60493098  0.30679743     0.05820
H460        H  0.06863276  0.70873658  0.23844188     0.05670
C461        C  0.60923642  0.94796105  0.18534015     0.02700
C462        C  0.58863117  0.92739747  0.21511580    -0.13450
C463        C  0.61171943  0.89374515  0.25866367     0.00200
C464        C  0.65735784  0.88698444  0.27810515    -0.11970
C465        C  0.67825628  0.90739022  0.24945934     0.02700
C466        C  0.65275939  0.93227517  0.19963098    -0.11390
H467        H  0.55519354  0.93762369  0.20549836     0.08290
H468        H  0.67656808  0.86572684  0.31545681     0.05820
H469        H  0.66874136  0.94427398  0.17551098     0.05670
O470        O  0.99310637  0.00212014  0.32853223    -0.81320
O471        O  0.94344342  0.87009701  0.48378226    -0.66010
O472        O  0.96548632  0.97686229  0.40811101    -1.12610
C473        C  0.11625351  0.94617411  0.53843598     1.05570
O474        O  0.99003101  0.89945736  0.56682977    -0.79210
O475        O  0.04103970  0.48276366  0.57830370    -0.66800
Ni476      Ni  0.94276213  0.97022293  0.32976794     1.34870
C477        C  0.03441182  0.52254360  0.55029749     0.84310
O478        O  0.89119093  0.93135449  0.40342718    -0.79750
O479        O  0.88726618  0.93959816  0.31946881    -0.90030
C480        C  0.95767820  0.87084862  0.53595843     0.83880
O481        O  0.97312078  0.90883744  0.33931015    -0.68230
O482        O  0.10202977  0.92367487  0.56799648    -0.87520
C483        C  0.96010665  0.86941799  0.35184679     0.84710
C484        C  0.86906352  0.93256936  0.35067943     1.06280
H485        H  0.02490463  0.88598005  0.47029683     0.38080
O486        O  0.01632442  0.91584110  0.48326007    -1.10180
O487        O  0.02735490  0.52166133  0.50035652    -0.66830
Ni488      Ni  0.02841824  0.97199134  0.44971438     1.26350
O489        O  0.94889199  0.86985908  0.39048512    -0.67060
O490        O  0.09133295  0.96603840  0.49194000    -0.79350
C491        C  0.02520305  0.52934879  0.36232563     0.84090
O492        O  0.03850548  0.52715160  0.41396803    -0.66530
Ni493      Ni  0.04444996  0.91296485  0.56297543     1.27450
Ni494      Ni  0.95347209  0.92226461  0.44403963     1.26060
H495        H  0.95490907  0.50763162  0.41652312     0.38640
C496        C  0.37757874  0.94594043  0.70120729     0.02700
C497        C  0.39712201  0.48437025  0.68502477    -0.13450
C498        C  0.37163514  0.51227231  0.63646871     0.00200
C499        C  0.32547792  0.50306561  0.60724272    -0.11970
C500        C  0.30537854  0.96810876  0.62668899     0.02700
C501        C  0.33163584  0.93902780  0.67273394    -0.11390
H502        H  0.43246583  0.49094385  0.70895600     0.08290
H503        H  0.30495816  0.52320856  0.56954893     0.05820
H504        H  0.31624780  0.91060291  0.68624527     0.05670
C505        C  0.87915648  0.70683289  0.20122797     0.02700
C506        C  0.89324328  0.67148765  0.17456610    -0.13450
C507        C  0.86195922  0.64306765  0.12927347     0.00200
C508        C  0.81647196  0.64994446  0.11111840    -0.11970
C509        C  0.80229193  0.68566813  0.13763827     0.02700
C510        C  0.83374071  0.71354884  0.18284343    -0.11390
H511        H  0.92832580  0.66815700  0.18691520     0.08290
H512        H  0.79226815  0.62915157  0.07517994     0.05820
H513        H  0.82276470  0.74244000  0.20189523     0.05670
O514        O  0.47585649  0.72823989  0.05880439    -0.81320
O515        O  0.54605966  0.63309683  0.90686673    -0.66010
O516        O  0.51323547  0.72960612  0.98520897    -1.12610
C517        C  0.36640379  0.69405737  0.84700479     1.05570
O518        O  0.49777575  0.66031741  0.82332265    -0.79210
O519        O  0.44496535  0.73972002  0.81612840    -0.66800
Ni520      Ni  0.53453563  0.72698343  0.06337372     1.34870
C521        C  0.44725278  0.77826296  0.84532123     0.84310
O522        O  0.59304772  0.69450207  0.99596572    -0.79750
O523        O  0.59437801  0.72764371  0.07372319    -0.90030
C524        C  0.53050953  0.63304676  0.85431273     0.83880
O525        O  0.53694135  0.65569359  0.07206139    -0.68230
O526        O  0.38282287  0.67648616  0.81682596    -0.87520
C527        C  0.53882253  0.61946083  0.04247159     0.84710
C528        C  0.61365630  0.71298026  0.04555466     1.06280
H529        H  0.46056854  0.63800999  0.91410681     0.38080
O530        O  0.46821239  0.66979806  0.90426333    -1.10180
O531        O  0.45080105  0.77508143  0.89390573    -0.66830
Ni532      Ni  0.45154238  0.72077405  0.94079281     1.26350
O533        O  0.53464040  0.62472006  0.99396207    -0.67060
O534        O  0.38953109  0.71080127  0.89620557    -0.79350
C535        C  0.44617966  0.76026787  0.03145672     0.84090
O536        O  0.43838024  0.76968874  0.98227286    -0.66530
Ni537      Ni  0.44187429  0.66936131  0.82474407     1.27450
Ni538      Ni  0.53096617  0.68085586  0.94835510     1.26060
H539        H  0.52178461  0.76200086  0.97789178     0.38640
C540        C  0.10314456  0.68943305  0.69830922     0.02700
C541        C  0.14916937  0.68623651  0.71884559    -0.13450
C542        C  0.17792928  0.71711430  0.76299108     0.00200
C543        C  0.16062456  0.75140571  0.78720369    -0.11970
C544        C  0.11452847  0.75484122  0.76694826     0.02700
C545        C  0.08583101  0.72416043  0.72206526    -0.11390
H546        H  0.16270348  0.65898362  0.70103960     0.08290
H547        H  0.18290431  0.77458830  0.82224267     0.05820
H548        H  0.05025125  0.72634210  0.70673185     0.05670
C549        C  0.60803962  0.94536647  0.68038147     0.02700
C550        C  0.58671255  0.97794625  0.70158914    -0.13450
C551        C  0.61069968  0.50189248  0.75425051     0.00200
C552        C  0.65651730  0.49298055  0.78551878    -0.11970
C553        C  0.67793276  0.96064985  0.76497674     0.02700
C554        C  0.65338262  0.93568304  0.71409306    -0.11390
H555        H  0.55160840  0.48447259  0.67764154     0.08290
H556        H  0.67563204  0.51181938  0.82533552     0.05820
H557        H  0.67045382  0.90894758  0.70072836     0.05670
C558        C  0.38234485  0.95899117  0.20019118     0.02700
C559        C  0.39659557  0.92246312  0.17468398    -0.13450
C560        C  0.36565796  0.89249486  0.13046146     0.00200
C561        C  0.31993853  0.90008820  0.11195691    -0.11970
C562        C  0.30548701  0.93843429  0.13547241     0.02700
C563        C  0.33682342  0.96737421  0.17962138    -0.11390
H564        H  0.43186009  0.91718669  0.18952645     0.08290
H565        H  0.29559836  0.87667100  0.07893709     0.05820
H566        H  0.32566732  0.99659281  0.19810232     0.05670
O567        O  0.98256308  0.99718408  0.06785419    -0.81320
O568        O  0.04806878  0.88375575  0.91809671    -0.66010
O569        O  0.01466337  0.98559657  0.98932995    -1.12610
C570        C  0.86750150  0.93604013  0.85972405     1.05570
O571        O  0.99742034  0.90449182  0.83314671    -0.79210
O572        O  0.93802620  0.47882754  0.81793072    -0.66800
Ni573      Ni  0.03937458  0.98912526  0.06840698     1.34870
C574        C  0.94083930  0.51953301  0.84407000     0.84310
O575        O  0.09438578  0.95157651  0.99742618    -0.79750
O576        O  0.09863944  0.98368734  0.07673195    -0.90030
C577        C  0.03234331  0.88105772  0.86576518     0.83880
O578        O  0.03813771  0.91903203  0.08121906    -0.68230
O579        O  0.88372654  0.91355563  0.83171414    -0.87520
C580        C  0.04304344  0.88119440  0.05588151     0.84710
C581        C  0.11656623  0.96866639  0.04716785     1.06280
H582        H  0.96524128  0.88778158  0.93059747     0.38080
O583        O  0.97055876  0.91842339  0.91616956    -1.10180
O584        O  0.94909051  0.52104029  0.89470495    -0.66830
Ni585      Ni  0.95290172  0.97209222  0.94791925     1.26350
O586        O  0.04119546  0.88319355  0.00831263    -0.67060
O587        O  0.89081755  0.95842298  0.90595348    -0.79350
C588        C  0.95009263  0.52370089  0.03468141     0.84090
O589        O  0.93851455  0.52479372  0.98333033    -0.66530
Ni590      Ni  0.94209160  0.90991987  0.83684114     1.27450
Ni591      Ni  0.03270932  0.93428317  0.95555569     1.26060
H592        H  0.02130468  0.51733442  0.97806468     0.38640
C593        C  0.19145089  0.94880599  0.12729896    -0.02270
C594        C  0.16591440  0.96806731  0.07306150     0.07410
C595        C  0.18764750  0.98205246  0.04200633    -0.02390
C596        C  0.23353388  0.97378298  0.06326978    -0.02390
C597        C  0.25756162  0.94899764  0.11413919     0.07540
C598        C  0.23653822  0.93727678  0.14644893    -0.02580
Br599      Br  0.26908437  0.90302666  0.21600442    -0.01130
Br600      Br  0.16548987  0.93611374  0.17585910    -0.01200
Br601      Br  0.26398376  0.99880244  0.02411664    -0.01160
Br602      Br  0.15531184  0.01537182  0.97172431    -0.01150
C603        C  0.79574655  0.41851001  0.86142715    -0.02270
C604        C  0.81880126  0.94015526  0.83538341     0.07410
C605        C  0.79589379  0.97068273  0.78860717    -0.02390
C606        C  0.75046760  0.98001019  0.76849757    -0.02390
C607        C  0.72688212  0.95642124  0.79266687     0.07540
C608        C  0.74957973  0.42579772  0.83935167    -0.02580
Br609      Br  0.71716318  0.39328357  0.87208628    -0.01130
Br610      Br  0.82718896  0.37766996  0.92609847    -0.01200
Br611      Br  0.72072884  0.02701426  0.70905882    -0.01160
Br612      Br  0.82658960  0.00089683  0.75217498    -0.01150
C613        C  0.08127937  0.76763512  0.83063065    -0.02270
C614        C  0.09611672  0.78813274  0.79477098     0.07410
C615        C  0.09248370  0.83994781  0.78482959    -0.02390
C616        C  0.07306663  0.87091238  0.80970953    -0.02390
C617        C  0.05536490  0.84975181  0.84235060     0.07540
C618        C  0.05989612  0.79806347  0.85317231    -0.02580
Br619      Br  0.03529223  0.76831704  0.89717509    -0.01130
Br620      Br  0.09189284  0.69822254  0.85084493    -0.01200
Br621      Br  0.07355121  0.94244401  0.80227061    -0.01160
Br622      Br  0.11375042  0.86828343  0.73678126    -0.01150
C623        C  0.29359947  0.72840259  0.77756546    -0.02270
C624        C  0.31780479  0.69726886  0.82342682     0.07410
C625        C  0.29609307  0.67332520  0.84990811    -0.02390
C626        C  0.25032914  0.68034585  0.83047687    -0.02390
C627        C  0.22627029  0.71158429  0.78485177     0.07540
C628        C  0.24784591  0.73540761  0.75824720    -0.02580
Br629      Br  0.21466753  0.77844341  0.69598612    -0.01130
Br630      Br  0.32348011  0.76398185  0.74321649    -0.01200
Br631      Br  0.22025794  0.64674351  0.86576134    -0.01160
Br632      Br  0.32888440  0.63003640  0.91207652    -0.01150
C633        C  0.55451919  0.51859414  0.78849396    -0.02270
C634        C  0.58844297  0.53648916  0.77711879     0.07410
C635        C  0.60286535  0.58690583  0.79083703    -0.02390
C636        C  0.58451583  0.61829382  0.81691937    -0.02390
C637        C  0.55073960  0.60025622  0.82799974     0.07540
C638        C  0.53540954  0.55061717  0.81304011    -0.02580
Br639      Br  0.48841107  0.52645314  0.82726359    -0.01130
Br640      Br  0.53600488  0.44931246  0.77423046    -0.01200
Br641      Br  0.60592230  0.68597347  0.83834093    -0.01160
Br642      Br  0.64679846  0.61396994  0.77243643    -0.01150
C643        C  0.43484096  0.78723596  0.11475117    -0.02270
C644        C  0.42077868  0.78721046  0.05650640     0.07410
C645        C  0.38309811  0.81633121  0.02226001    -0.02390
C646        C  0.36657384  0.85222728  0.04610375    -0.02390
C647        C  0.38176277  0.85361003  0.10412278     0.07540
C648        C  0.41363891  0.81830142  0.13746989    -0.02580
Br649      Br  0.42683289  0.81094138  0.21422289    -0.01130
Br650      Br  0.48288652  0.74573866  0.16550673    -0.01200
Br651      Br  0.32601022  0.90193445  0.99839028    -0.01160
Br652      Br  0.34986213  0.80465360  0.94265869    -0.01150
C653        C  0.73083869  0.72016199  0.06416684    -0.02270
C654        C  0.75464591  0.69685751  0.11603403     0.07410
C655        C  0.73358864  0.68676949  0.14868229    -0.02390
C656        C  0.68821589  0.69723681  0.12820366    -0.02390
C657        C  0.66295776  0.71475532  0.07309983     0.07540
C658        C  0.68506551  0.72886113  0.04262340    -0.02580
Br659      Br  0.65334266  0.76344992  0.97315135    -0.01130
Br660      Br  0.76122218  0.74151889  0.02332537    -0.01200
Br661      Br  0.66137719  0.68432588  0.17569468    -0.01160
Br662      Br  0.76638551  0.65546000  0.22022624    -0.01150
C663        C  0.90200618  0.52947747  0.08135217    -0.02270
C664        C  0.92441026  0.55311045  0.05557501     0.07410
C665        C  0.92075310  0.60518730  0.04745483    -0.02390
C666        C  0.89578986  0.63358875  0.06635043    -0.02390
C667        C  0.87756216  0.61091160  0.09749725     0.07540
C668        C  0.87875388  0.55848829  0.10271864    -0.02580
Br669      Br  0.84943899  0.52677192  0.14003953    -0.01130
Br670      Br  0.90255703  0.95752198  0.08646311    -0.01200
Br671      Br  0.88433942  0.70309087  0.04693163    -0.01160
Br672      Br  0.95308797  0.63856831  0.01492290    -0.01150
C673        C  0.40611647  0.91101780  0.79713394    -0.02270
C674        C  0.40470485  0.90949937  0.74460237     0.07410
C675        C  0.42472709  0.86942824  0.73092615    -0.02390
C676        C  0.44660418  0.83170678  0.76953119    -0.02390
C677        C  0.44189404  0.82843385  0.81847927     0.07540
C678        C  0.42415857  0.87053652  0.83394260    -0.02580
Br679      Br  0.42327642  0.87448268  0.90428424    -0.01130
Br680      Br  0.37972393  0.96707101  0.81616785    -0.01200
Br681      Br  0.48422939  0.78599652  0.75504601    -0.01160
Br682      Br  0.41528036  0.86061394  0.65584730    -0.01150
C683        C  0.18854014  0.91471563  0.54824070    -0.02270
C684        C  0.16446839  0.95134447  0.56028440     0.07410
C685        C  0.18644480  0.49355325  0.59324024    -0.02390
C686        C  0.23246407  0.49929144  0.61410081    -0.02390
C687        C  0.25657991  0.96327651  0.60119914     0.07540
C688        C  0.23463800  0.92068298  0.56862686    -0.02580
Br689      Br  0.26783491  0.87038358  0.55259169    -0.01130
Br690      Br  0.15825768  0.85617801  0.50468182    -0.01200
Br691      Br  0.26285536  0.55487192  0.66351795    -0.01160
Br692      Br  0.15359127  0.54311487  0.61090141    -0.01150
C693        C  0.03441246  0.57436811  0.62808371    -0.02270
C694        C  0.03844999  0.57218991  0.57880276     0.07410
C695        C  0.05277939  0.61617413  0.56266741    -0.02390
C696        C  0.07100228  0.65657447  0.60067858    -0.02390
C697        C  0.07413554  0.65388970  0.65399341     0.07540
C698        C  0.05364649  0.61397593  0.66650894    -0.02580
Br699      Br  0.05581646  0.61046653  0.73839868    -0.01130
Br700      Br  0.00052626  0.52442954  0.64182440    -0.01200
Br701      Br  0.09351524  0.71524295  0.58106861    -0.01160
Br702      Br  0.04841894  0.62328797  0.48981159    -0.01150
C703        C  0.93482137  0.83087763  0.25678131    -0.02270
C704        C  0.95159668  0.82456227  0.31509536     0.07090
C705        C  0.95330662  0.77584106  0.33559468    -0.02390
C706        C  0.93194303  0.73570190  0.29826646    -0.02390
C707        C  0.91042048  0.74397036  0.24059812     0.07540
C708        C  0.91414097  0.79062539  0.22001827    -0.02580
Br709      Br  0.88677959  0.80064961  0.14053218    -0.01130
Br710      Br  0.93504784  0.89487223  0.22413457    -0.01200
Br711      Br  0.92993535  0.67009535  0.32562066    -0.01160
Br712      Br  0.98649095  0.76362070  0.41426276    -0.01150
C713        C  0.75217971  0.88194282  0.25795029    -0.02270
C714        C  0.72728125  0.91134637  0.27645548     0.07410
C715        C  0.74886396  0.94740088  0.31928125    -0.02390
C716        C  0.79504805  0.95451593  0.34299323    -0.02390
C717        C  0.82025848  0.92512067  0.32466590     0.07540
C718        C  0.79860769  0.88857075  0.28218762    -0.02580
Br719      Br  0.83234321  0.84582856  0.25860160    -0.01130
Br720      Br  0.72252982  0.83201457  0.20015011    -0.01200
Br721      Br  0.82313114  0.00695513  0.39835175    -0.01160
Br722      Br  0.71486640  0.98850875  0.34450277    -0.01150
C723        C  0.54211419  0.99163897  0.10603599    -0.02270
C724        C  0.58854445  0.98931826  0.14391987     0.07410
C725        C  0.61618892  0.52780042  0.14113249    -0.02390
C726        C  0.59897020  0.56173577  0.09782460    -0.02390
C727        C  0.55333858  0.57036186  0.06942864     0.07540
C728        C  0.52442225  0.53483275  0.07304943    -0.02580
Br729      Br  0.46132955  0.54395748  0.02994387    -0.01130
Br730      Br  0.50272740  0.93568950  0.09432696    -0.01200
Br731      Br  0.63769869  0.58979275  0.07197871    -0.01160
Br732      Br  0.67536086  0.04291163  0.19996425    -0.01150
C733        C  0.02858471  0.80667730  0.10073326    -0.02270
C734        C  0.05662911  0.83369086  0.08595823     0.07410
C735        C  0.10074892  0.81864867  0.10596172    -0.02390
C736        C  0.11930874  0.78526655  0.14988453    -0.02390
C737        C  0.09142741  0.75345420  0.16172154     0.07540
C738        C  0.04485008  0.76399387  0.13458970    -0.02580
Br739      Br  0.00138456  0.72122494  0.13924185    -0.01130
Br740      Br  0.96721763  0.82636167  0.07055297    -0.01200
Br741      Br  0.18245189  0.79314274  0.19866625    -0.01160
Br742      Br  0.13573684  0.84055936  0.07138870    -0.01150
C743        C  0.05092701  0.59928627  0.25965029    -0.02270
C744        C  0.09231243  0.62158588  0.29444577     0.07410
C745        C  0.11197457  0.61444141  0.35232971    -0.02390
C746        C  0.09164992  0.58248462  0.37468303    -0.02390
C747        C  0.04812884  0.56311371  0.34013757     0.07540
C748        C  0.02723437  0.57467779  0.28263960    -0.02580
Br749      Br  0.96537337  0.56037765  0.23362986    -0.01130
Br750      Br  0.02874248  0.59640591  0.17991700    -0.01200
Br751      Br  0.12672756  0.56334275  0.45144553    -0.01160
Br752      Br  0.16679950  0.64856024  0.40135810    -0.01150
C753        C  0.29684582  0.64080369  0.27996787    -0.02270
C754        C  0.31674398  0.68020723  0.31946417     0.07410
C755        C  0.29030179  0.71007393  0.33524046    -0.02390
C756        C  0.24463668  0.70032798  0.31245128    -0.02390
C757        C  0.22469780  0.66138695  0.27258073     0.07540
C758        C  0.25077971  0.63168870  0.25634191    -0.02580
Br759      Br  0.22317414  0.57851214  0.20214766    -0.01130
Br760      Br  0.33243672  0.59788406  0.25935830    -0.01200
Br761      Br  0.20929015  0.74159719  0.33545738    -0.01160
Br762      Br  0.31583889  0.76674599  0.38540797    -0.01150
C763        C  0.53269035  0.85011374  0.59388397    -0.02270
C764        C  0.55665367  0.82678591  0.56978058     0.07410
C765        C  0.59170115  0.85349124  0.56741724    -0.02390
C766        C  0.60591778  0.89952391  0.59651893    -0.02390
C767        C  0.58350930  0.91867668  0.62518201     0.07540
C768        C  0.54009006  0.90102391  0.60690284    -0.02580
Br769      Br  0.49795908  0.93592624  0.54266739    -0.01130
Br770      Br  0.48069253  0.81933852  0.59076422    -0.01200
Br771      Br  0.65306935  0.93737268  0.59407694    -0.01160
Br772      Br  0.62231694  0.82629580  0.52884125    -0.01150
C773        C  0.43370150  0.52717964  0.33887619    -0.02270
C774        C  0.45335340  0.56857137  0.32630058     0.07410
C775        C  0.46234613  0.56345250  0.28044263    -0.02390
C776        C  0.44103402  0.02577576  0.23987533    -0.02390
C777        C  0.41423668  0.99012791  0.24763312     0.07540
C778        C  0.41428132  0.98807804  0.29940063    -0.02580
Br779      Br  0.38665001  0.93194807  0.31523806    -0.01130
Br780      Br  0.43259557  0.52259426  0.40909187    -0.01200
Br781      Br  0.44545099  0.02618917  0.17156509    -0.01160
Br782      Br  0.50446855  0.60638294  0.27259878    -0.01150
C783        C  0.39291476  0.62813142  0.56938946    -0.02270
C784        C  0.43032302  0.61287732  0.56431738     0.07410
C785        C  0.45107852  0.56783648  0.58766580    -0.02390
C786        C  0.43129992  0.53442953  0.60917833    -0.02390
C787        C  0.39322451  0.54857217  0.61430599     0.07540
C788        C  0.37554133  0.59714884  0.59646946    -0.02580
Br789      Br  0.32984781  0.62361164  0.61209619    -0.01130
Br790      Br  0.36668894  0.69214445  0.54060065    -0.01200
Br791      Br  0.45465152  0.46804595  0.62581228    -0.01160
Br792      Br  0.50798198  0.55410874  0.59142691    -0.01150
C793        C  0.57157532  0.78142763  0.30627596    -0.02270
C794        C  0.54862296  0.80405079  0.33202190     0.07410
C795        C  0.54646305  0.85665083  0.33455901    -0.02390
C796        C  0.56719373  0.88657845  0.31098343    -0.02390
C797        C  0.58872428  0.86371481  0.28305717     0.07540
C798        C  0.59003276  0.81091422  0.27999822    -0.02580
Br799      Br  0.61496618  0.77822715  0.23723080    -0.01130
Br800      Br  0.57962256  0.70993077  0.30945845    -0.01200
Br801      Br  0.56742940  0.95846818  0.31905268    -0.01160
Br802      Br  0.51506795  0.88747010  0.37034948    -0.01150
C803        C  0.68553527  0.71547184  0.61138547    -0.02270
C804        C  0.66090726  0.68887647  0.56069589     0.07410
C805        C  0.68233315  0.67090159  0.53050015    -0.02390
C806        C  0.72814266  0.67919926  0.55101791    -0.02390
C807        C  0.75235743  0.70691263  0.60076009     0.07540
C808        C  0.73089276  0.72529452  0.63063850    -0.02580
Br809      Br  0.76355565  0.76543986  0.69728822    -0.01130
Br810      Br  0.65731723  0.74069161  0.65394137    -0.01200
Br811      Br  0.75796816  0.65099445  0.51203701    -0.01160
Br812      Br  0.64929426  0.63310046  0.46216191    -0.01150
C813        C  0.89455701  0.64833323  0.78847921    -0.02270
C814        C  0.89992668  0.64928948  0.74029088     0.07410
C815        C  0.92388359  0.61109579  0.73039197    -0.02390
C816        C  0.94160102  0.57160504  0.76805368    -0.02390
C817        C  0.93150915  0.56711037  0.81272897     0.07540
C818        C  0.90752588  0.60603582  0.82248074    -0.02580
Br819      Br  0.88469223  0.59911945  0.87497424    -0.01130
Br820      Br  0.86758128  0.70448964  0.80644015    -0.01200
Br821      Br  0.97860463  0.52322811  0.75679365    -0.01160
Br822      Br  0.92790577  0.60965114  0.66187403    -0.01150
C823        C  0.88811366  0.76675466  0.55457012    -0.02270
C824        C  0.88990286  0.78046710  0.60564906     0.07410
C825        C  0.91490679  0.82249424  0.63524062    -0.02390
C826        C  0.93828641  0.85089814  0.61401558    -0.02390
C827        C  0.93487845  0.83924245  0.56073944     0.07540
C828        C  0.90934299  0.79629464  0.53140432    -0.02580
Br829      Br  0.90391291  0.77419270  0.46040278    -0.01130
Br830      Br  0.85878467  0.70498563  0.51796771    -0.01200
Br831      Br  0.97489449  0.90468076  0.66076302    -0.01160
Br832      Br  0.91645499  0.84138434  0.70517954    -0.01150
loop_ 
_geom_bond_atom_site_label_1 
_geom_bond_atom_site_label_2 
_geom_bond_distance 
_geom_bond_site_symmetry_2 
_ccdc_geom_bond_type 
C1            C2   1.401       .  A
C1            C6   1.398       .  A
C1          C398   1.477       .  S
C2            C3   1.404       .  A
C2            H7   1.084       .  S
C3            C4   1.408       .  A
C3          C408   1.482       .  S
C4            C5   1.404       .  A
C4            H8   1.084       .  S
C5            C6   1.396       .  A
C5          C391   1.476       .  S
C6            H9   1.085       .  S
O10         Ni16   1.931       .  S
O10          C31   1.271       .  A
O11         Ni34   1.907       .  S
O11          C20   1.269       .  A
O12         Ni16   1.913       .  S
O12         Ni34   1.909       .  S
O12         Ni28   1.925       .  S
O12          H35   0.967       .  S
C13         C388   1.474       .  S
C13          O30   1.275       .  A
C13          O22   1.279       .  A
O14         Ni33   1.939       .  S
O14          C20   1.272       .  A
O15         Ni33   1.907       .  S
O15          C17   1.268       .  A
Ni16         O19   1.940       .  S
Ni16         O21   1.900       .  S
C17         C348   1.466       .  S
C17          O27   1.265       .  A
O18         Ni34   1.896       .  S
O18          C24   1.267       .  A
O19          C24   1.273       .  A
C20         C368   1.477       .  S
O21          C23   1.270       .  A
O22         Ni33   1.927       .  S
C23         C358   1.503       .  S
C23          O29   1.280       .  A
C24         C338   1.479       .  S
H25          O26   0.966       .  S
O26         Ni34   1.898       .  S
O26         Ni28   1.892       .  S
O26         Ni33   1.909       .  S
O27         Ni28   1.905       .  S
Ni28         O32   1.897       .  S
Ni28         O30   1.909       .  S
O29         Ni34   1.955       .  S
C31         C378   1.471       .  S
C31          O32   1.263       .  A
C36          C37   1.412       .  A
C36          C41   1.413       .  A
C36         C321   1.513       .  S
C37          C38   1.397       .  A
C37          H42   1.080       .  S
C38          C39   1.393       .  A
C38         C341   1.477       .  S
C39          C40   1.400       .  A
C39          H43   1.083       .  S
C40          C41   1.409       .  A
C40         C328   1.481       .  S
C41          H44   1.078       .  S
C45          C46   1.413       .  A
C45          C50   1.411       .  A
C45         C308   1.509       .  S
C46          C47   1.409       .  A
C46          H51   1.079       .  S
C47          C48   1.402       .  A
C47         C381   1.484       .  S
C48          C49   1.394       .  A
C48          H52   1.084       .  S
C49          C50   1.398       .  A
C49         C298   1.481       .  S
C50          H53   1.082       .  S
O54         Ni60   1.932       .  S
O54         C491   1.269   1_655  A
O55         Ni78   1.902       .  S
O55          C64   1.266       .  A
O56         Ni60   1.901       .  S
O56         Ni78   1.915       .  S
O56         Ni72   1.905   1_655  S
O56         H495   0.965       .  S
C57         C268   1.469       .  S
C57          O74   1.270       .  A
C57          O66   1.274       .  A
O58         Ni77   1.941   1_655  S
O58          C64   1.273       .  A
O59        Ni493   1.922       .  S
O59          C61   1.274   1_565  A
Ni60         O63   1.956       .  S
Ni60         O65   1.894       .  S
C61         C278   1.500       .  S
C61          O71   1.263       .  A
O62         Ni78   1.896       .  S
O62          C68   1.271       .  A
O63          C68   1.280       .  A
C64         C411   1.510       .  S
O65          C67   1.255       .  A
O66         Ni77   1.924       .  S
C67         C288   1.488       .  S
C67          O73   1.275       .  A
C68         C301   1.484       .  S
H69          O70   0.967       .  S
O70         Ni78   1.903   1_455  S
O70         Ni72   1.910       .  S
O70         Ni77   1.919       .  S
O71        Ni488   1.912   1_545  S
Ni72         O74   1.908       .  S
Ni72        O487   1.912       .  S
Ni72        O492   1.896       .  S
O73         Ni78   1.959       .  S
C75         C331   1.499       .  S
C75          O76   1.260       .  A
C75         O470   1.269   1_455  A
O76        Ni488   1.896   1_545  S
Ni77        O475   1.922       .  S
H79         O472   0.965   1_545  S
C80          C85   1.395       .  A
C80         C497   1.408       .  A
C80         C258   1.485       .  S
C81          C82   1.416   1_565  A
C81         C496   1.408       .  A
C81          H86   1.081       .  S
C82          C83   1.411       .  A
C82         C371   1.510       .  S
C83         C500   1.406   1_545  A
C83          H87   1.083       .  S
C84          C85   1.396       .  A
C84         C499   1.406       .  A
C84         C271   1.477       .  S
C85          H88   1.085       .  S
C89          C90   1.398       .  A
C89          C94   1.399       .  A
C89         C291   1.473       .  S
C90          C91   1.406       .  A
C90          H95   1.084       .  S
C91          C92   1.402       .  A
C91         C251   1.475       .  S
C92          C93   1.404       .  A
C92          H96   1.084       .  S
C93          C94   1.399       .  A
C93         C238   1.477       .  S
C94          H97   1.084       .  S
O98        Ni104   1.946       .  S
O98         C119   1.273       .  A
O99        Ni122   1.915       .  S
O99         C108   1.270       .  A
O100       Ni104   1.899   1_556  S
O100       Ni122   1.896       .  S
O100       Ni116   1.884       .  S
O100        H123   0.966       .  S
C101        C208   1.473       .  S
C101        O118   1.268       .  A
C101        O110   1.275       .  A
O102       Ni121   1.939       .  S
O102        C108   1.273       .  A
O103       Ni121   1.907       .  S
O103        C105   1.271       .  A
Ni104       O107   1.924       .  S
Ni104       O109   1.920       .  S
C105        C261   1.505       .  S
C105        O115   1.273       .  A
O106       Ni122   1.926       .  S
O106        C112   1.284   1_556  A
O107        C112   1.279       .  A
C108        C221   1.483       .  S
O109        C111   1.271       .  A
O110       Ni121   1.931       .  S
C111        C311   1.480       .  S
C111        O117   1.269   1_554  A
C112        C241   1.486       .  S
H113        O114   0.966       .  S
O114       Ni122   1.921       .  S
O114       Ni116   1.912       .  S
O114       Ni121   1.914       .  S
O115       Ni116   1.938       .  S
Ni116       O120   1.901       .  S
Ni116       O118   1.898       .  S
O117       Ni122   1.926       .  S
C119        C228   1.507       .  S
C119        O120   1.265   1_554  A
C124        C125   1.400       .  A
C124        C129   1.402       .  A
C124        C281   1.478       .  S
C125        C126   1.398       .  A
C125        H130   1.085       .  S
C126        C127   1.403       .  A
C126        C211   1.475       .  S
C127        C128   1.404       .  A
C127        H131   1.084       .  S
C128        C129   1.405       .  A
C128        C198   1.477       .  S
C129        H132   1.084       .  S
C133        C134   1.413       .  A
C133        C138   1.405       .  A
C133        C351   1.502       .  S
C134        C551   1.416       .  A
C134        H555   1.078       .  S
C135        C136   1.407   1_545  A
C135        C550   1.416   1_545  A
C135        C218   1.497       .  S
C136        C553   1.399       .  A
C136        H140   1.084   1_565  S
C137        C138   1.396       .  A
C137        C552   1.399       .  A
C137        C191   1.480       .  S
C138        H141   1.082       .  S
H139        C550   1.078       .  S
C142        C143   1.402       .  A
C142        C147   1.400       .  A
C142        C361   1.482       .  S
C143        C144   1.409       .  A
C143        H148   1.084       .  S
C144        C145   1.411       .  A
C144        C231   1.497       .  S
C145        C146   1.406       .  A
C145        H149   1.083       .  S
C146        C147   1.398       .  A
C146        C181   1.484       .  S
C147        H150   1.084       .  S
O151       Ni157   1.942   1_655  S
O151        C588   1.274       .  A
O152       Ni175   1.896       .  S
O152        C161   1.265       .  A
O153       Ni157   1.908   1_556  S
O153       Ni175   1.896       .  S
O153       Ni169   1.897   1_455  S
O153        H592   0.966       .  S
C154        C188   1.476       .  S
C154        O171   1.270       .  A
C154        O163   1.276       .  A
O155       Ni174   1.941       .  S
O155        C161   1.273   1_655  A
O156       Ni590   1.905       .  S
O156        C158   1.270   1_565  A
Ni157       O160   1.930       .  S
Ni157       O162   1.914       .  S
C158        C401   1.490       .  S
C158        O168   1.270       .  A
O159       Ni175   1.917       .  S
O159        C165   1.279   1_556  A
O160        C165   1.277       .  A
C161        C201   1.474       .  S
O162        C164   1.270       .  A
O163       Ni174   1.931       .  S
C164        C318   1.473       .  S
C164        O170   1.267       .  A
C165        C178   1.489       .  S
H166        O167   0.966       .  S
O167       Ni175   1.918   1_655  S
O167       Ni169   1.901       .  S
O167       Ni174   1.916       .  S
O168       Ni585   1.922   1_545  S
Ni169       O171   1.908       .  S
Ni169       O584   1.922       .  S
Ni169       O589   1.885       .  S
O170       Ni175   1.916   1_554  S
C172        C248   1.469       .  S
C172        O173   1.261   1_554  A
C172        O567   1.274   1_545  A
O173       Ni585   1.885   1_545  S
Ni174       O572   1.905       .  S
H176        O569   0.966   1_545  S
C177        C178   1.420       .  A
C177        C182   1.408       .  A
C177       Br184   1.937       .  S
C178        C179   1.413       .  A
C179        C180   1.409       .  A
C179       Br186   1.932   1_554  S
C180        C181   1.409       .  A
C180       Br185   1.928       .  S
C181        C182   1.408       .  A
C182       Br183   1.931       .  S
C187        C192   1.412       .  A
C187        C604   1.411       .  A
C187       Br194   1.928       .  S
C188        C189   1.411       .  A
C188        C603   1.411       .  A
C189        C190   1.403       .  A
C189       Br196   1.930       .  S
C190        C191   1.408       .  A
C190       Br195   1.933       .  S
C191        C608   1.410       .  A
C192        C607   1.410       .  A
C192       Br193   1.927       .  S
C197        C198   1.409       .  A
C197        C202   1.404       .  A
C197       Br204   1.928       .  S
C198        C199   1.409       .  A
C199        C200   1.408       .  A
C199       Br206   1.930       .  S
C200        C201   1.410       .  A
C200       Br205   1.926       .  S
C201        C202   1.410       .  A
C202       Br203   1.933       .  S
C207        C208   1.411       .  A
C207        C212   1.407       .  A
C207       Br214   1.932       .  S
C208        C209   1.410       .  A
C209        C210   1.407       .  A
C209       Br216   1.931       .  S
C210        C211   1.408       .  A
C210       Br215   1.930       .  S
C211        C212   1.408       .  A
C212       Br213   1.931       .  S
C217        C218   1.415       .  A
C217        C222   1.412       .  A
C217       Br224   1.931   1_545  S
C218        C219   1.418       .  A
C219        C220   1.413       .  A
C219       Br226   1.932       .  S
C220        C221   1.407       .  A
C220       Br225   1.928       .  S
C221        C222   1.409       .  A
C222       Br223   1.930       .  S
C227        C228   1.424       .  A
C227        C232   1.413       .  A
C227       Br234   1.934       .  S
C228        C229   1.422       .  A
C229        C230   1.408       .  A
C229       Br236   1.936   1_554  S
C230        C231   1.411       .  A
C230       Br235   1.930   1_554  S
C231        C232   1.412       .  A
C232       Br233   1.931       .  S
C237        C238   1.410       .  A
C237        C242   1.407       .  A
C237       Br244   1.931       .  S
C238        C239   1.407       .  A
C239        C240   1.406       .  A
C239       Br246   1.934       .  S
C240        C241   1.420       .  A
C240       Br245   1.935       .  S
C241        C242   1.411       .  A
C242       Br243   1.930   1_554  S
C247        C248   1.410       .  A
C247        C252   1.409       .  A
C247       Br670   1.929   1_545  S
C248        C249   1.409       .  A
C249        C250   1.401       .  A
C249       Br256   1.932       .  S
C250        C251   1.407       .  A
C250       Br255   1.927       .  S
C251        C252   1.409       .  A
C252       Br253   1.930       .  S
Br254       C663   1.929       .  S
C257        C258   1.407       .  A
C257        C262   1.415       .  A
C257       Br264   1.932       .  S
C258        C259   1.406       .  A
C259        C260   1.403       .  A
C259       Br266   1.923       .  S
C260        C261   1.417       .  A
C260       Br265   1.936       .  S
C261        C262   1.425       .  A
C262       Br263   1.928       .  S
C267        C268   1.407       .  A
C267        C272   1.409       .  A
C267       Br274   1.929       .  S
C268        C685   1.408       .  A
C269        C270   1.404       .  A
C269        C684   1.408       .  A
C269       Br276   1.929   1_565  S
C270        C687   1.409       .  A
C270       Br275   1.931   1_565  S
C271        C272   1.411       .  A
C271        C686   1.409       .  A
C272       Br273   1.929       .  S
C277        C278   1.410       .  A
C277        C282   1.404       .  A
C277       Br284   1.918       .  S
C278        C279   1.425       .  A
C279        C280   1.410       .  A
C279       Br286   1.928       .  S
C280        C281   1.406       .  A
C280       Br285   1.934       .  S
C281        C282   1.406       .  A
C282       Br283   1.925       .  S
C287        C288   1.424       .  A
C287        C292   1.402       .  A
C287       Br294   1.940       .  S
C288        C289   1.414       .  A
C289        C290   1.410       .  A
C289       Br296   1.927       .  S
C290        C291   1.406       .  A
C290       Br295   1.928       .  S
C291        C292   1.404       .  A
C292       Br293   1.934       .  S
C297        C298   1.407       .  A
C297        C302   1.411       .  A
C297       Br304   1.931       .  S
C298        C299   1.412       .  A
C299        C300   1.406       .  A
C299       Br306   1.934       .  S
C300        C301   1.412       .  A
C300       Br305   1.934       .  S
C301        C302   1.416       .  A
C302       Br303   1.925       .  S
C307        C308   1.430       .  A
C307        C728   1.422       .  A
C307       Br314   1.931       .  S
C308        C725   1.422       .  A
C309        C310   1.391       .  A
C309        C724   1.422   1_545  A
C309       Br732   1.937       .  S
C310        C311   1.396       .  A
C310       Br315   1.920       .  S
C311        C312   1.407       .  A
C312        C723   1.422   1_545  A
C312       Br313   1.925       .  S
Br316       C725   1.937       .  S
C317        C318   1.402       .  A
C317        C322   1.417       .  A
C317       Br324   1.931   1_455  S
C318        C319   1.399       .  A
C319        C320   1.394       .  A
C319       Br326   1.928       .  S
C320        C321   1.423       .  A
C320       Br325   1.938       .  S
C321        C322   1.433       .  A
C322       Br323   1.924       .  S
C327        C328   1.406       .  A
C327        C332   1.401       .  A
C327       Br334   1.933       .  S
C328        C329   1.408       .  A
C329        C330   1.411       .  A
C329       Br336   1.933       .  S
C330        C331   1.426       .  A
C330       Br335   1.934       .  S
C331        C332   1.420       .  A
C332       Br333   1.930   1_455  S
C337        C338   1.417       .  A
C337        C342   1.410       .  A
C337       Br344   1.928       .  S
C338        C339   1.409       .  A
C339        C340   1.403       .  A
C339       Br346   1.935       .  S
C340        C341   1.414       .  A
C340       Br345   1.935       .  S
C341        C342   1.404       .  A
C342       Br343   1.929       .  S
C347        C348   1.405       .  A
C347        C352   1.394       .  A
C347       Br354   1.920       .  S
C348        C349   1.420       .  A
C349        C350   1.410       .  A
C349       Br356   1.929       .  S
C350        C351   1.414       .  A
C350       Br355   1.928       .  S
C351        C352   1.402       .  A
C352       Br353   1.917       .  S
C357        C358   1.420       .  A
C357        C778   1.410   1_545  A
C357       Br364   1.933       .  S
C358        C359   1.422       .  A
C359        C776   1.406       .  A
C359       Br366   1.929       .  S
C360        C361   1.405       .  A
C360        C775   1.406       .  A
C360       Br365   1.933       .  S
C361        C362   1.409       .  A
C362        C773   1.410       .  A
C362       Br363   1.930       .  S
C367        C368   1.405       .  A
C367        C372   1.416       .  A
C367       Br374   1.928       .  S
C368        C369   1.397       .  A
C369        C370   1.407       .  A
C369       Br376   1.929       .  S
C370        C371   1.419       .  A
C370       Br375   1.915   1_545  S
C371        C372   1.424       .  A
C372       Br373   1.928       .  S
C377        C378   1.403       .  A
C377        C382   1.402       .  A
C377       Br384   1.928       .  S
C378        C379   1.410       .  A
C379        C380   1.411       .  A
C379       Br386   1.929       .  S
C380        C381   1.413       .  A
C380       Br385   1.930       .  S
C381        C382   1.414       .  A
C382       Br383   1.932       .  S
C387        C388   1.414       .  A
C387        C392   1.404       .  A
C387       Br394   1.934       .  S
C388        C389   1.410       .  A
C389        C390   1.407       .  A
C389       Br396   1.931       .  S
C390        C391   1.409       .  A
C390       Br395   1.927       .  S
C391        C392   1.408       .  A
C392       Br393   1.932       .  S
C397        C398   1.406       .  A
C397        C402   1.405       .  A
C397       Br404   1.932       .  S
C398        C399   1.406       .  A
C399        C400   1.406       .  A
C399       Br406   1.931       .  S
C400        C401   1.416       .  A
C400       Br405   1.925       .  S
C401        C402   1.419       .  A
C402       Br403   1.930       .  S
C407        C408   1.405       .  A
C407        C412   1.409       .  A
C407       Br414   1.934       .  S
C408        C409   1.403       .  A
C409        C410   1.410       .  A
C409       Br416   1.937       .  S
C410        C411   1.428       .  A
C410       Br415   1.925       .  S
C411        C412   1.427       .  A
C412       Br413   1.935       .  S
C417        C418   1.401       .  A
C417        C422   1.398       .  A
C417        C814   1.477       .  S
C418        C419   1.404       .  A
C418        H423   1.084       .  S
C419        C420   1.408       .  A
C419        C824   1.482       .  S
C420        C421   1.404       .  A
C420        H424   1.084       .  S
C421        C422   1.396       .  A
C421        C807   1.476       .  S
C422        H425   1.085       .  S
O426       Ni432   1.931       .  S
O426        C447   1.271       .  A
O427       Ni450   1.907       .  S
O427        C436   1.269       .  A
O428       Ni432   1.913       .  S
O428       Ni450   1.909       .  S
O428       Ni444   1.925       .  S
O428        H451   0.967       .  S
C429        C804   1.474       .  S
C429        O446   1.275       .  A
C429        O438   1.279       .  A
O430       Ni449   1.939       .  S
O430        C436   1.272       .  A
O431       Ni449   1.907       .  S
O431        C433   1.268       .  A
Ni432       O435   1.940       .  S
Ni432       O437   1.900       .  S
C433        C764   1.466       .  S
C433        O443   1.265       .  A
O434       Ni450   1.896       .  S
O434        C440   1.267       .  A
O435        C440   1.273       .  A
C436        C784   1.477       .  S
O437        C439   1.270       .  A
O438       Ni449   1.927       .  S
C439        C774   1.503       .  S
C439        O445   1.280       .  A
C440        C754   1.479       .  S
H441        O442   0.966       .  S
O442       Ni450   1.898       .  S
O442       Ni444   1.892       .  S
O442       Ni449   1.909       .  S
O443       Ni444   1.905       .  S
Ni444       O448   1.897       .  S
Ni444       O446   1.909       .  S
O445       Ni450   1.955       .  S
C447        C794   1.471       .  S
C447        O448   1.263       .  A
C452        C453   1.412       .  A
C452        C457   1.413       .  A
C452        C737   1.513       .  S
C453        C454   1.397       .  A
C453        H458   1.080       .  S
C454        C455   1.393       .  A
C454        C757   1.477       .  S
C455        C456   1.400       .  A
C455        H459   1.083       .  S
C456        C457   1.409       .  A
C456        C744   1.481       .  S
C457        H460   1.078       .  S
C461        C462   1.413       .  A
C461        C466   1.411       .  A
C461        C724   1.509       .  S
C462        C463   1.409       .  A
C462        H467   1.079       .  S
C463        C464   1.402       .  A
C463        C797   1.484       .  S
C464        C465   1.395       .  A
C464        H468   1.084       .  S
C465        C466   1.398       .  A
C465        C714   1.481       .  S
C466        H469   1.082       .  S
O470       Ni476   1.932   1_545  S
O471       Ni494   1.902       .  S
O471        C480   1.266       .  A
O472       Ni476   1.901       .  S
O472       Ni494   1.915       .  S
O472       Ni488   1.905   1_655  S
C473        C684   1.469       .  S
C473        O490   1.270       .  A
C473        O482   1.274       .  A
O474       Ni493   1.941   1_655  S
O474        C480   1.273       .  A
O475        C477   1.274       .  A
Ni476       O479   1.956       .  S
Ni476       O481   1.894       .  S
C477        C694   1.500       .  S
C477        O487   1.263       .  A
O478       Ni494   1.896       .  S
O478        C484   1.271       .  A
O479        C484   1.280       .  A
C480        C827   1.510       .  S
O481        C483   1.255       .  A
O482       Ni493   1.924       .  S
C483        C704   1.488       .  S
C483        O489   1.275       .  A
C484        C717   1.484       .  S
H485        O486   0.967       .  S
O486       Ni494   1.903   1_455  S
O486       Ni488   1.910       .  S
O486       Ni493   1.919       .  S
Ni488       O490   1.908       .  S
O489       Ni494   1.959       .  S
C491        C747   1.499       .  S
C491        O492   1.260       .  A
C496        C501   1.395       .  A
C496        C674   1.485       .  S
C497        C498   1.416       .  A
C497        H502   1.081       .  S
C498        C499   1.411       .  A
C498        C787   1.510       .  S
C499        H503   1.083       .  S
C500        C501   1.396       .  A
C500        C687   1.477       .  S
C501        H504   1.085       .  S
C505        C506   1.398       .  A
C505        C510   1.399       .  A
C505        C707   1.473       .  S
C506        C507   1.406       .  A
C506        H511   1.084       .  S
C507        C508   1.402       .  A
C507        C667   1.475       .  S
C508        C509   1.404       .  A
C508        H512   1.084       .  S
C509        C510   1.399       .  A
C509        C654   1.477       .  S
C510        H513   1.084       .  S
O514       Ni520   1.946       .  S
O514        C535   1.273       .  A
O515       Ni538   1.915       .  S
O515        C524   1.270       .  A
O516       Ni520   1.899   1_556  S
O516       Ni538   1.896       .  S
O516       Ni532   1.884       .  S
O516        H539   0.966       .  S
C517        C624   1.473       .  S
C517        O534   1.268       .  A
C517        O526   1.275       .  A
O518       Ni537   1.939       .  S
O518        C524   1.273       .  A
O519       Ni537   1.907       .  S
O519        C521   1.271       .  A
Ni520       O523   1.924       .  S
Ni520       O525   1.920       .  S
C521        C677   1.505       .  S
C521        O531   1.273       .  A
O522       Ni538   1.926       .  S
O522        C528   1.284   1_556  A
O523        C528   1.279       .  A
C524        C637   1.483       .  S
O525        C527   1.271       .  A
O526       Ni537   1.931       .  S
C527        C727   1.480       .  S
C527        O533   1.269   1_554  A
C528        C657   1.486       .  S
H529        O530   0.966       .  S
O530       Ni538   1.921       .  S
O530       Ni532   1.912       .  S
O530       Ni537   1.914       .  S
O531       Ni532   1.938       .  S
Ni532       O536   1.901       .  S
Ni532       O534   1.898       .  S
O533       Ni538   1.926       .  S
C535        C644   1.507       .  S
C535        O536   1.265   1_554  A
C540        C541   1.400       .  A
C540        C545   1.402       .  A
C540        C697   1.478       .  S
C541        C542   1.398       .  A
C541        H546   1.085       .  S
C542        C543   1.403       .  A
C542        C627   1.475       .  S
C543        C544   1.404       .  A
C543        H547   1.084       .  S
C544        C545   1.405       .  A
C544        C614   1.477       .  S
C545        H548   1.084       .  S
C549        C550   1.413       .  A
C549        C554   1.405       .  A
C549        C767   1.502       .  S
C551        C552   1.407       .  A
C551        C634   1.497       .  S
C552        H556   1.084       .  S
C553        C554   1.396       .  A
C553        C607   1.480       .  S
C554        H557   1.082       .  S
C558        C559   1.402       .  A
C558        C563   1.400       .  A
C558        C777   1.482       .  S
C559        C560   1.409       .  A
C559        H564   1.084       .  S
C560        C561   1.411       .  A
C560        C647   1.497       .  S
C561        C562   1.406       .  A
C561        H565   1.083       .  S
C562        C563   1.398       .  A
C562        C597   1.484       .  S
C563        H566   1.084       .  S
O567       Ni573   1.942   1_655  S
O568       Ni591   1.896       .  S
O568        C577   1.265       .  A
O569       Ni573   1.908   1_556  S
O569       Ni591   1.896       .  S
O569       Ni585   1.897   1_455  S
C570        C604   1.476       .  S
C570        O587   1.270       .  A
C570        O579   1.276       .  A
O571       Ni590   1.941       .  S
O571        C577   1.273   1_655  A
O572        C574   1.270       .  A
Ni573       O576   1.930       .  S
Ni573       O578   1.914       .  S
C574        C817   1.490       .  S
C574        O584   1.270       .  A
O575       Ni591   1.917       .  S
O575        C581   1.279   1_556  A
O576        C581   1.277       .  A
C577        C617   1.474       .  S
O578        C580   1.270       .  A
O579       Ni590   1.931       .  S
C580        C734   1.473       .  S
C580        O586   1.267       .  A
C581        C594   1.489       .  S
H582        O583   0.966       .  S
O583       Ni591   1.918   1_655  S
O583       Ni585   1.901       .  S
O583       Ni590   1.916       .  S
Ni585       O587   1.908       .  S
O586       Ni591   1.916   1_554  S
C588        C664   1.469       .  S
C588        O589   1.261   1_554  A
C593        C594   1.420       .  A
C593        C598   1.408       .  A
C593       Br600   1.937       .  S
C594        C595   1.413       .  A
C595        C596   1.409       .  A
C595       Br602   1.932   1_564  S
C596        C597   1.409       .  A
C596       Br601   1.928       .  S
C597        C598   1.408       .  A
C598       Br599   1.931       .  S
C603        C608   1.412       .  A
C603       Br610   1.928       .  S
C604        C605   1.411       .  A
C605        C606   1.403       .  A
C605       Br612   1.930   1_565  S
C606        C607   1.408       .  A
C606       Br611   1.933   1_565  S
C608       Br609   1.927       .  S
C613        C614   1.409       .  A
C613        C618   1.404       .  A
C613       Br620   1.928       .  S
C614        C615   1.409       .  A
C615        C616   1.408       .  A
C615       Br622   1.930       .  S
C616        C617   1.410       .  A
C616       Br621   1.926       .  S
C617        C618   1.410       .  A
C618       Br619   1.933       .  S
C623        C624   1.411       .  A
C623        C628   1.407       .  A
C623       Br630   1.932       .  S
C624        C625   1.410       .  A
C625        C626   1.407       .  A
C625       Br632   1.931       .  S
C626        C627   1.408       .  A
C626       Br631   1.930       .  S
C627        C628   1.408       .  A
C628       Br629   1.931       .  S
C633        C634   1.415       .  A
C633        C638   1.412       .  A
C633       Br640   1.931       .  S
C634        C635   1.418       .  A
C635        C636   1.413       .  A
C635       Br642   1.932       .  S
C636        C637   1.407       .  A
C636       Br641   1.928       .  S
C637        C638   1.409       .  A
C638       Br639   1.930       .  S
C643        C644   1.424       .  A
C643        C648   1.413       .  A
C643       Br650   1.934       .  S
C644        C645   1.422       .  A
C645        C646   1.408       .  A
C645       Br652   1.936   1_554  S
C646        C647   1.411       .  A
C646       Br651   1.930   1_554  S
C647        C648   1.412       .  A
C648       Br649   1.931       .  S
C653        C654   1.410       .  A
C653        C658   1.407       .  A
C653       Br660   1.931       .  S
C654        C655   1.407       .  A
C655        C656   1.406       .  A
C655       Br662   1.934       .  S
C656        C657   1.420       .  A
C656       Br661   1.935       .  S
C657        C658   1.411       .  A
C658       Br659   1.930   1_554  S
C663        C664   1.410       .  A
C663        C668   1.409       .  A
C664        C665   1.409       .  A
C665        C666   1.401       .  A
C665       Br672   1.932       .  S
C666        C667   1.407       .  A
C666       Br671   1.927       .  S
C667        C668   1.409       .  A
C668       Br669   1.930       .  S
C673        C674   1.407       .  A
C673        C678   1.415       .  A
C673       Br680   1.932       .  S
C674        C675   1.406       .  A
C675        C676   1.403       .  A
C675       Br682   1.923       .  S
C676        C677   1.417       .  A
C676       Br681   1.936       .  S
C677        C678   1.425       .  A
C678       Br679   1.928       .  S
C683        C684   1.407       .  A
C683        C688   1.409       .  A
C683       Br690   1.929       .  S
C685        C686   1.404       .  A
C685       Br692   1.929       .  S
C686       Br691   1.931       .  S
C687        C688   1.411       .  A
C688       Br689   1.929       .  S
C693        C694   1.410       .  A
C693        C698   1.404       .  A
C693       Br700   1.918       .  S
C694        C695   1.425       .  A
C695        C696   1.410       .  A
C695       Br702   1.928       .  S
C696        C697   1.406       .  A
C696       Br701   1.934       .  S
C697        C698   1.406       .  A
C698       Br699   1.925       .  S
C703        C704   1.424       .  A
C703        C708   1.402       .  A
C703       Br710   1.940       .  S
C704        C705   1.414       .  A
C705        C706   1.410       .  A
C705       Br712   1.927       .  S
C706        C707   1.406       .  A
C706       Br711   1.928       .  S
C707        C708   1.404       .  A
C708       Br709   1.934       .  S
C713        C714   1.407       .  A
C713        C718   1.411       .  A
C713       Br720   1.931       .  S
C714        C715   1.412       .  A
C715        C716   1.406       .  A
C715       Br722   1.934       .  S
C716        C717   1.412       .  A
C716       Br721   1.934   1_565  S
C717        C718   1.416       .  A
C718       Br719   1.925       .  S
C723        C724   1.430       .  A
C723       Br730   1.931       .  S
C725        C726   1.391       .  A
C726        C727   1.396       .  A
C726       Br731   1.920       .  S
C727        C728   1.407       .  A
C728       Br729   1.925       .  S
C733        C734   1.402       .  A
C733        C738   1.417       .  A
C733       Br740   1.931   1_455  S
C734        C735   1.399       .  A
C735        C736   1.394       .  A
C735       Br742   1.928       .  S
C736        C737   1.423       .  A
C736       Br741   1.938       .  S
C737        C738   1.433       .  A
C738       Br739   1.924       .  S
C743        C744   1.406       .  A
C743        C748   1.401       .  A
C743       Br750   1.933       .  S
C744        C745   1.408       .  A
C745        C746   1.411       .  A
C745       Br752   1.933       .  S
C746        C747   1.426       .  A
C746       Br751   1.934       .  S
C747        C748   1.420       .  A
C748       Br749   1.930   1_455  S
C753        C754   1.417       .  A
C753        C758   1.410       .  A
C753       Br760   1.928       .  S
C754        C755   1.409       .  A
C755        C756   1.403       .  A
C755       Br762   1.935       .  S
C756        C757   1.414       .  A
C756       Br761   1.935       .  S
C757        C758   1.404       .  A
C758       Br759   1.929       .  S
C763        C764   1.405       .  A
C763        C768   1.394       .  A
C763       Br770   1.920       .  S
C764        C765   1.420       .  A
C765        C766   1.410       .  A
C765       Br772   1.929       .  S
C766        C767   1.414       .  A
C766       Br771   1.928       .  S
C767        C768   1.402       .  A
C768       Br769   1.918       .  S
C773        C774   1.420       .  A
C773       Br780   1.933       .  S
C774        C775   1.422       .  A
C775       Br782   1.929       .  S
C776        C777   1.405   1_545  A
C776       Br781   1.933       .  S
C777        C778   1.409       .  A
C778       Br779   1.930       .  S
C783        C784   1.405       .  A
C783        C788   1.416       .  A
C783       Br790   1.928       .  S
C784        C785   1.397       .  A
C785        C786   1.407       .  A
C785       Br792   1.929       .  S
C786        C787   1.419       .  A
C786       Br791   1.915       .  S
C787        C788   1.424       .  A
C788       Br789   1.928       .  S
C793        C794   1.403       .  A
C793        C798   1.402       .  A
C793       Br800   1.928       .  S
C794        C795   1.410       .  A
C795        C796   1.411       .  A
C795       Br802   1.929       .  S
C796        C797   1.413       .  A
C796       Br801   1.930       .  S
C797        C798   1.414       .  A
C798       Br799   1.932       .  S
C803        C804   1.414       .  A
C803        C808   1.404       .  A
C803       Br810   1.934       .  S
C804        C805   1.410       .  A
C805        C806   1.407       .  A
C805       Br812   1.931       .  S
C806        C807   1.409       .  A
C806       Br811   1.927       .  S
C807        C808   1.408       .  A
C808       Br809   1.932       .  S
C813        C814   1.406       .  A
C813        C818   1.405       .  A
C813       Br820   1.932       .  S
C814        C815   1.406       .  A
C815        C816   1.406       .  A
C815       Br822   1.931       .  S
C816        C817   1.416       .  A
C816       Br821   1.925       .  S
C817        C818   1.419       .  A
C818       Br819   1.930       .  S
C823        C824   1.405       .  A
C823        C828   1.409       .  A
C823       Br830   1.934       .  S
C824        C825   1.403       .  A
C825        C826   1.410       .  A
C825       Br832   1.937       .  S
C826        C827   1.428       .  A
C826       Br831   1.925       .  S
C827        C828   1.427       .  A
C828       Br829   1.935       .  S
