geometry optimzed in LAMMPS
_audit_creation_date              2020-11-30 
_audit_creation_method            'lammps2cif' 
_symmetry_space_group_name_H-M    'P1' 
_symmetry_Int_Tables_number       1 
_symmetry_cell_setting            triclinic 
loop_ 
_symmetry_equiv_pos_as_xyz 
  x,y,z 
_cell_length_a                    32.09364103 
_cell_length_b                    32.03925415795973 
_cell_length_c                    51.67483673384197 
_cell_angle_alpha                 89.76127830658902 
_cell_angle_beta                  90.07594589277524 
_cell_angle_gamma                 119.82165684340615 
loop_ 
_atom_site_label 
_atom_site_type_symbol 
_atom_site_fract_x 
_atom_site_fract_y 
_atom_site_fract_z 
_atom_site_charge 
O1          O  0.09055840  0.30115213  0.32249306    -0.88300
C2          C  0.19521747  0.35164486  0.26758561     0.87800
Mg3        Mg  0.08644715  0.34376213  0.35384969     1.58100
O4          O  0.19699095  0.27112105  0.31416623    -0.88000
O5          O  0.08411286  0.23139737  0.31419871    -0.75300
C6          C  0.30410536  0.43816047  0.40793905     0.92800
O7          O  0.15164454  0.40848135  0.30255610    -0.75200
O8          O  0.26880458  0.44615044  0.40925108    -0.82700
Mg9        Mg  0.10168320  0.33312882  0.28480935     1.58000
C10         C  0.33384364  0.31953576  0.34921925     0.92700
O11         O  0.05109083  0.26416639  0.26369743    -0.80900
H12         H  0.16598096  0.20744133  0.33230537    -0.06300
C13         C  0.28283692  0.41650074  0.33238441     0.87700
O14         O  0.11488009  0.30913633  0.38261841    -0.75400
O15         O  0.15973925  0.31988293  0.27887129    -0.88200
O16         O  0.31222965  0.30589900  0.32761947    -0.81000
C17         C  0.24180124  0.25815774  0.25413870     0.92800
C18         C  0.04761267  0.22812636  0.25158687     0.92700
Mg19       Mg  0.25233075  0.34067511  0.37231853     1.58000
O20         O  0.30599075  0.41288183  0.38963770    -0.80900
O21         O  0.20310171  0.26438116  0.35619291    -0.75200
O22         O  0.19755650  0.24701533  0.25335548    -0.81000
O23         O  0.03605805  0.33980904  0.29016702    -0.82700
O24         O  0.15401843  0.42089380  0.40638459    -0.81000
C25         C  0.18814144  0.24604708  0.33392408     0.87100
O26         O  0.19263326  0.35137642  0.37852598    -0.88200
O27         O  0.26205821  0.37229181  0.33474068    -0.88300
O28         O  0.26997292  0.44177358  0.34542425    -0.75300
Mg29       Mg  0.14238269  0.24538548  0.28391554     1.58000
O30         O  0.26987819  0.28550289  0.27165231    -0.82700
H31         H  0.04018307  0.24033281  0.33904215    -0.06400
O32         O  0.15754276  0.40259463  0.34470436    -0.88000
H33         H  0.19054890  0.46571775  0.32603248    -0.06300
H34         H  0.16118343  0.29812458  0.40447279    -0.06400
C35         C  0.16734796  0.42719894  0.32471104     0.87100
C36         C  0.07015709  0.25717347  0.32575974     0.87700
C37         C  0.15679732  0.31913766  0.38940564     0.87700
H38         H  0.31261719  0.43406063  0.31903085    -0.06400
O39         O  0.23724757  0.36273610  0.27459010    -0.75400
Mg40       Mg  0.21075505  0.42543375  0.37591823     1.58000
H41         H  0.19038214  0.37160340  0.25208305    -0.06400
C42         C  0.02097535  0.35483229  0.30850966     0.92700
O43         O  0.08288427  0.38768509  0.38679897    -0.82700
C44         C  0.11047652  0.41204897  0.40529337     0.92800
O45         O  0.08104457  0.21735994  0.25266956    -0.82700
Mg46       Mg  0.26712071  0.33037885  0.30364975     1.58200
O47         O  0.04634672  0.37284277  0.32873080    -0.81000
O48         O  0.31706856  0.33322543  0.36732558    -0.82700
C49         C  0.33480014  0.14217376  0.18606593     0.02400
C50         C  0.33792807  0.18806015  0.18635485     0.02300
C51         C  0.36576895  0.22225698  0.16735000    -0.18200
C52         C  0.39436079  0.21456297  0.14977519     0.02400
C53         C  0.39356986  0.16986659  0.15027777     0.02300
C54         C  0.36243600  0.13388994  0.16776279    -0.18200
H55         H  0.35944420  0.09872716  0.16709172     0.04400
H56         H  0.36582549  0.25611844  0.16648084     0.04400
C57         C  0.84148637  0.12541961  0.18357444     0.02400
C58         C  0.88743248  0.16663650  0.18078257     0.02300
C59         C  0.89322395  0.20141462  0.16211861    -0.18200
C60         C  0.85569411  0.19455722  0.14510982     0.02400
C61         C  0.81144824  0.15024911  0.14617974     0.02300
C62         C  0.80440230  0.11805269  0.16646236    -0.18200
H63         H  0.76962134  0.08586004  0.16860717     0.04400
H64         H  0.92757419  0.23422188  0.16068886     0.04400
O65         O  0.25637217  0.88568311  0.33513282    -0.88300
C66         C  0.15439508  0.83191316  0.39022279     0.87800
Mg67       Mg  0.25469910  0.92733677  0.30243408     1.58100
O68         O  0.16635338  0.75566327  0.34590043    -0.88000
O69         O  0.27521510  0.83196311  0.34692614    -0.75300
C70         C  0.03877178  0.79248126  0.24918190     0.92800
O71         O  0.18992059  0.92636153  0.35268253    -0.75200
O72         O  0.06932197  0.83774687  0.24857525    -0.82700
Mg73       Mg  0.24612934  0.90995954  0.37181066     1.58000
C74         C  0.03819109  0.65424730  0.31434522     0.92700
O75         O  0.30171052  0.89843354  0.39361684    -0.80900
H76         H  0.20459478  0.73004048  0.32848201    -0.05700
C77         C  0.06541586  0.79499812  0.32333027     0.87700
O78         O  0.23373019  0.86460799  0.27480206    -0.75400
O79         O  0.19254022  0.83799769  0.38097371    -0.88200
O80         O  0.07131038  0.66922066  0.33093506    -0.81000
C81         C  0.12013022  0.69424776  0.40657544     0.92800
C82         C  0.30843630  0.86910325  0.40732198     0.92700
Mg83       Mg  0.10260494  0.75389290  0.28506004     1.58000
O84         O  0.04620609  0.76385989  0.26309695    -0.80900
O85         O  0.15968460  0.73889171  0.30419733    -0.75200
O86         O  0.16359442  0.72899088  0.40793034    -0.81000
O87         O  0.30789134  0.98466731  0.36289782    -0.82700
O88         O  0.18380801  0.93690863  0.24913751    -0.81000
C89         C  0.17787424  0.74099815  0.32649683     0.87100
O90         O  0.15531651  0.82605787  0.27554902    -0.88200
O91         O  0.09246922  0.77815769  0.32171155    -0.88300
O92         O  0.07261707  0.83109360  0.30982739    -0.75300
Mg93       Mg  0.21746669  0.78589907  0.37702435     1.58000
O94         O  0.09322732  0.69263043  0.38815680    -0.82700
H95         H  0.31304322  0.88399574  0.32026354    -0.06400
O96         O  0.18215083  0.90879939  0.31107496    -0.88000
H97         H  0.14526751  0.93591850  0.32853136    -0.06300
H98         H  0.19249576  0.80783260  0.25163966    -0.06400
C99         C  0.17144071  0.92423178  0.33046061     0.87100
C100        C  0.28291202  0.86825601  0.33345761     0.87700
C101        C  0.19346472  0.83220852  0.26633724     0.87700
H102        H  0.03522154  0.77886326  0.33646390    -0.06400
O103        O  0.11402918  0.79909891  0.38202928    -0.75400
Mg104      Mg  0.13003426  0.87787144  0.27973664     1.58000
H105        H  0.15543578  0.85654940  0.40478265    -0.06400
C106        C  0.31353128  0.01035984  0.34309628     0.92700
O107        O  0.25390113  0.97060311  0.26922992    -0.82700
C108        C  0.22750154  0.97114631  0.25119027     0.92800
O109        O  0.27719851  0.82423259  0.40791718    -0.82700
Mg110      Mg  0.09400686  0.73631394  0.35445822     1.58200
O111        O  0.28207288  0.99612710  0.32548436    -0.81000
O112        O  0.04158391  0.67925111  0.29461033    -0.82700
O113        O  0.65289670  0.75203984  0.34178618    -0.88300
C114        C  0.69483413  0.85831201  0.39377971     0.87800
Mg115      Mg  0.69792112  0.75231018  0.31070099     1.58100
O116        O  0.60725113  0.84099263  0.34746533    -0.88000
O117        O  0.57936324  0.73311013  0.35099864    -0.75300
C118        C  0.77375739  0.96175981  0.25280588     0.92800
O119        O  0.75817282  0.82306454  0.36030650    -0.75200
O120        O  0.78817538  0.93119151  0.25407298    -0.82700
Mg121      Mg  0.68591001  0.76657001  0.37906766     1.58000
C122        C  0.63248210  0.96627613  0.31122437     0.92700
O123        O  0.61850980  0.71114058  0.40026675    -0.80900
H124        H  0.54347606  0.80110241  0.33040691    -0.06300
C125        C  0.74612885  0.94142605  0.32633658     0.87700
O126        O  0.65457927  0.76820578  0.28102598    -0.75400
O127        O  0.66461678  0.81906622  0.38480450    -0.88200
O128        O  0.61394390  0.93510862  0.32898066    -0.81000
C129        C  0.59101974  0.88931534  0.40698506     0.92800
C130        C  0.58100153  0.70400465  0.41246394     0.92700
Mg131      Mg  0.66935340  0.89958120  0.28662268     1.58000
O132        O  0.73650685  0.95488741  0.26515738    -0.80900
O133        O  0.59690257  0.84377051  0.30545416    -0.75200
O134        O  0.58436527  0.84654925  0.40894454    -0.81000
O135        O  0.70233111  0.70606374  0.37313891    -0.82700
O136        O  0.77073458  0.81989107  0.25698640    -0.81000
C137        C  0.58098503  0.82766344  0.32808973     0.87100
O138        O  0.69023262  0.84678905  0.28100213    -0.88200
O139        O  0.70248172  0.91445641  0.32392561    -0.88300
O140        O  0.77589808  0.93327246  0.31452153    -0.75300
Mg141      Mg  0.58783278  0.79193462  0.37945596     1.58000
O142        O  0.61308620  0.91584344  0.38771276    -0.82700
H143        H  0.59637717  0.69381780  0.32693542    -0.06400
O144        O  0.74776229  0.82580124  0.31827175    -0.88000
H145        H  0.81135433  0.86638737  0.33539214    -0.06300
H146        H  0.63652529  0.80661230  0.25673521    -0.06400
C147        C  0.77396869  0.83941652  0.33768009     0.87100
C148        C  0.60928582  0.72488139  0.33936326     0.87700
C149        C  0.66007075  0.80753168  0.27198051     0.87700
H150        H  0.75929570  0.97227779  0.33893289    -0.06400
O151        O  0.70043976  0.89762020  0.38466573    -0.75400
Mg152      Mg  0.76717413  0.87440426  0.28621099     1.58000
H153        H  0.71837088  0.85923324  0.40902814    -0.06400
C154        C  0.72499629  0.70210671  0.35415017     0.92700
O155        O  0.74253093  0.75046926  0.27811302    -0.82700
C156        C  0.76431739  0.77724209  0.25887188     0.92800
O157        O  0.56658870  0.73461044  0.41137237    -0.82700
Mg158      Mg  0.65760518  0.91435155  0.35507978     1.58200
O159        O  0.74287631  0.73433206  0.33694905    -0.81000
O160        O  0.65391583  0.96027686  0.29231930    -0.82700
C161        C  0.86791593  0.67882441  0.18574677     0.02400
C162        C  0.82419463  0.67989911  0.18525849     0.02300
C163        C  0.79028338  0.65443804  0.16574917    -0.18200
C164        C  0.79608551  0.62449444  0.14809130     0.02400
C165        C  0.83794874  0.62003471  0.14967471     0.02300
C166        C  0.87387264  0.64862563  0.16796746    -0.18200
H167        H  0.90695674  0.64729034  0.16839037     0.04400
H168        H  0.75814738  0.65747191  0.16452241     0.04400
O169        O  0.45429615  0.03688674  0.00477968    -0.88300
C170        C  0.50742286  0.98505063  0.06154254     0.87800
Mg171      Mg  0.40703262  0.99645373  0.97294943     1.58100
O172        O  0.58458447  0.06330345  0.01365348    -0.88000
O173        O  0.51577658  0.10628002  0.01481491    -0.75300
C174        C  0.51614323  0.88619385  0.92234781     0.92800
O175        O  0.40545730  0.92948016  0.02563362    -0.75200
O176        O  0.47350503  0.87990403  0.92242488    -0.82700
Mg177      Mg  0.43296111  0.00502069  0.04276018     1.58000
C178        C  0.66677327  0.01207710  0.98212245     0.92700
O179        O  0.45298095  0.07540106  0.06351003    -0.80900
H180        H  0.61461350  0.12531736  0.99387257    -0.06300
C181        C  0.52216221  0.91758002  0.99736401     0.87700
O182        O  0.46905778  0.02706971  0.94399867    -0.75400
O183        O  0.50350487  0.01612768  0.04935093    -0.88200
O184        O  0.65935694  0.03895916  0.99685973    -0.81000
C185        C  0.64935325  0.07908653  0.07337550     0.92800
C186        C  0.48638695  0.10875336  0.07672955     0.92700
Mg187      Mg  0.56904680  0.98937657  0.95561645     1.58000
O188        O  0.54863369  0.91648439  0.93726418    -0.80900
O189        O  0.59584868  0.06663133  0.97142834    -0.75200
O190        O  0.61529157  0.08892358  0.07438092    -0.81000
O191        O  0.36038287  0.99753756  0.03733303    -0.82700
O192        O  0.38624540  0.90996704  0.92246190    -0.81000
C193        C  0.59910343  0.08670490  0.99323045     0.87100
O194        O  0.49954044  0.98013542  0.94802462    -0.88200
O195        O  0.54663822  0.96149592  0.99403099    -0.88300
O196        O  0.48374594  0.89237019  0.98460169    -0.75300
Mg197      Mg  0.56018139  0.09029082  0.04429892     1.58000
O198        O  0.65000947  0.05207452  0.05554696    -0.82700
H199        H  0.46378101  0.09854704  0.98959979    -0.06400
O200        O  0.41409135  0.93482251  0.98327364    -0.88000
H201        H  0.38277686  0.87179087  0.00200617    -0.06300
H202        H  0.52318701  0.03244576  0.92141968    -0.06400
C203        C  0.39957297  0.91049498  0.00336008     0.87100
C204        C  0.47702572  0.08104105  0.00245847     0.87700
C205        C  0.49801351  0.01338053  0.93685739     0.87700
H206        H  0.53369035  0.90019282  0.01133243    -0.06400
O207        O  0.53826143  0.97327717  0.05509488    -0.75400
Mg208      Mg  0.44068698  0.90745470  0.95338928     1.58000
H209        H  0.48325389  0.96662031  0.07746657    -0.06400
C210        C  0.33071271  0.98434958  0.01876466     0.92700
O211        O  0.35733348  0.95357291  0.94004424    -0.82700
C212        C  0.35520282  0.92421488  0.92281311     0.92800
O213        O  0.52951837  0.11689213  0.07605897    -0.82700
Mg214      Mg  0.59727723  0.00604582  0.02427929     1.58200
O215        O  0.34010760  0.97275824  0.99704186    -0.81000
O216        O  0.63956591  0.99268547  0.96298773    -0.82700
O217        O  0.55040312  0.58788507  0.99134639    -0.88300
C218        C  0.48523688  0.48077072  0.93899172     0.87800
Mg219      Mg  0.59865953  0.58798702  0.02088335     1.58100
O220        O  0.41270531  0.49265079  0.98635151    -0.88000
O221        O  0.49179665  0.60204060  0.98292418    -0.75300
C222        C  0.47265717  0.37233292  0.07568759     0.92800
O223        O  0.58903394  0.52159301  0.96832039    -0.75200
O224        O  0.51737412  0.40260841  0.07271864    -0.82700
Mg225      Mg  0.56624016  0.57537552  0.95306019     1.58000
C226        C  0.31835087  0.36630759  0.02539466     0.92700
O227        O  0.54986255  0.63154951  0.93520710    -0.80900
H228        H  0.39189064  0.53300773  0.00578527    -0.06300
C229        C  0.45846571  0.39501358  0.00281861     0.87700
O230        O  0.54107262  0.56601819  0.05200826    -0.75400
O231        O  0.49336222  0.51880586  0.94924943    -0.88200
O232        O  0.32683854  0.38980629  0.00435091    -0.81000
C233        C  0.34934963  0.44498506  0.92616363     0.92800
C234        C  0.51930225  0.62719846  0.91816886     0.92700
Mg235      Mg  0.42662285  0.43551445  0.04560355     1.58000
O236        O  0.44067506  0.37954471  0.06544422    -0.80900
O237        O  0.40753565  0.49121364  0.02890049    -0.75200
O238        O  0.38576167  0.48737174  0.92486673    -0.81000
O239        O  0.64156731  0.63711980  0.95692396    -0.82700
O240        O  0.61113942  0.51499916  0.06979270    -0.81000
C241        C  0.40322871  0.50642416  0.00675856     0.87100
O242        O  0.50046750  0.48786052  0.04913694    -0.88200
O243        O  0.43939202  0.41953461  0.00720050    -0.88300
O244        O  0.49874091  0.40540887  0.01260808    -0.75300
Mg245      Mg  0.44176236  0.54236483  0.95420774     1.58000
O246        O  0.34323264  0.41802949  0.94553023    -0.82700
H247        H  0.54692085  0.64284502  0.00736680    -0.06400
O248        O  0.57844732  0.51534298  0.01049404    -0.88000
H249        H  0.60531494  0.47999316  0.99122439    -0.06300
H250        H  0.48731356  0.52342721  0.07666681    -0.06400
C251        C  0.59173259  0.50479336  0.99027360     0.87100
C252        C  0.53069947  0.61221902  0.99454676     0.87700
C253        C  0.50906135  0.52529705  0.06026569     0.87700
H254        H  0.44092870  0.36457455  0.98994470    -0.06400
O255        O  0.45147813  0.44058075  0.94692996    -0.75400
Mg256      Mg  0.55069881  0.46244955  0.04117817     1.58000
H257        H  0.50810528  0.48164148  0.92340654    -0.06400
C258        C  0.67278097  0.64563915  0.97417957     0.92700
O259        O  0.64791403  0.58767940  0.05193304    -0.82700
C260        C  0.64642577  0.55829667  0.06895191     0.92800
O261        O  0.47540723  0.59457283  0.92001338    -0.82700
Mg262      Mg  0.39208007  0.41942079  0.97738758     1.58200
O263        O  0.66355797  0.61844112  0.99379866    -0.81000
O264        O  0.34989917  0.37721989  0.04275768    -0.82700
O265        O  0.02838359  0.44622699  0.98694432    -0.88300
C266        C  0.98240909  0.51310080  0.93739035     0.87800
Mg267      Mg  0.98390165  0.39640784  0.01708615     1.58100
O268        O  0.06778207  0.58601060  0.98415332    -0.88000
O269        O  0.09980752  0.50729528  0.97907991    -0.75300
C270        C  0.89835095  0.52000846  0.07897773     0.92800
O271        O  0.92220462  0.40916766  0.96783938    -0.75200
O272        O  0.88469103  0.47523267  0.07669371    -0.82700
Mg273      Mg  0.99639684  0.43198454  0.94937665     1.58000
C274        C  0.03531573  0.67730167  0.02819083     0.92700
O275        O  0.06468268  0.44859411  0.92787069    -0.80900
H276        H  0.13139827  0.60974942  0.00135989    -0.06300
C277        C  0.92510085  0.53471644  0.00555757     0.87700
O278        O  0.02234189  0.45367898  0.04808415    -0.75400
O279        O  0.01364987  0.50544327  0.94633347    -0.88200
O280        O  0.04242039  0.66982658  0.00481061    -0.81000
C281        C  0.08030480  0.65219535  0.92604294     0.92800
C282        C  0.10099130  0.48065103  0.91566225     0.92700
Mg283      Mg  0.00296950  0.56766778  0.04551629     1.58000
O284        O  0.93562267  0.55200220  0.06750643    -0.80900
O285        O  0.07615331  0.59008811  0.02650766    -0.75200
O286        O  0.08951457  0.61768808  0.92380852    -0.81000
O287        O  0.98407735  0.35655004  0.95179339    -0.82700
O288        O  0.90658654  0.38254099  0.07065308    -0.81000
C289        C  0.09335052  0.59635907  0.00371324     0.87100
O290        O  0.98403004  0.49396119  0.04777458    -0.88200
O291        O  0.96915284  0.55503374  0.00814500    -0.88300
O292        O  0.89767849  0.49408961  0.01594498    -0.75300
Mg293      Mg  0.08920925  0.55821266  0.95145570     1.58000
O294        O  0.05561518  0.65349476  0.94501378    -0.82700
H295        H  0.08793911  0.45060616  0.00190326    -0.06400
O296        O  0.92964429  0.41587036  0.01021129    -0.88000
H297        H  0.86641986  0.39149898  0.99239365    -0.06300
H298        H  0.03614144  0.50746462  0.07325540    -0.06400
C299        C  0.90449916  0.40470176  0.99044214     0.87100
C300        C  0.07240900  0.46693957  0.98980195     0.87700
C301        C  0.01445402  0.48567196  0.05733412     0.87700
H302        H  0.90957491  0.55156105  0.99385368    -0.06400
O303        O  0.97454737  0.54493690  0.94690431    -0.75400
Mg304      Mg  0.90807200  0.44257102  0.04299053     1.58000
H305        H  0.96006439  0.49096140  0.92173671    -0.06400
C306        C  0.96348153  0.32434091  0.96892866     0.92700
O307        O  0.93904786  0.34579958  0.04902599    -0.82700
C308        C  0.91451017  0.34725783  0.06791388     0.92800
O309        O  0.11363307  0.52529821  0.91772820    -0.82700
Mg310      Mg  0.01167714  0.60372463  0.97748075     1.58200
O311        O  0.94690661  0.33215867  0.98949835    -0.81000
O312        O  0.01977180  0.64418717  0.04507286    -0.82700
O313        O  0.29608608  0.08592345  0.66749079    -0.88300
C314        C  0.34141134  0.19131640  0.72236580     0.87800
Mg315      Mg  0.33919486  0.08452169  0.63530625     1.58100
O316        O  0.25594140  0.17841077  0.67594680    -0.88000
O317        O  0.22403157  0.06932438  0.67872544    -0.75300
C318        C  0.42691527  0.30079883  0.58356452     0.92800
O319        O  0.40252961  0.15356730  0.68641003    -0.75200
O320        O  0.43973596  0.26893663  0.58343081    -0.82700
Mg321      Mg  0.32957405  0.09987002  0.70481394     1.58000
C322        C  0.28902726  0.30676009  0.64266143     0.92700
O323        O  0.26235332  0.04557500  0.72656578    -0.80900
H324        H  0.19279113  0.14073784  0.65791222    -0.06300
C325        C  0.39753657  0.27423689  0.65648790     0.87700
O326        O  0.29947855  0.10688621  0.60672821    -0.75400
O327        O  0.31100563  0.15398191  0.71179951    -0.88200
O328        O  0.26713665  0.27215079  0.65813653    -0.81000
C329        C  0.23879307  0.22762896  0.73463805     0.92800
C330        C  0.22728087  0.04042644  0.74045622     0.92700
Mg331      Mg  0.32173114  0.23958099  0.61612265     1.58000
O332        O  0.38992650  0.29398030  0.59605314    -0.80900
O333        O  0.24775589  0.18416107  0.63392032    -0.75200
O334        O  0.23041708  0.18416400  0.73685381    -0.81000
O335        O  0.34444325  0.03944333  0.69866063    -0.82700
O336        O  0.41669547  0.15513307  0.58323853    -0.81000
C337        C  0.23059605  0.16674791  0.65621248     0.87100
O338        O  0.33930517  0.18520374  0.60870224    -0.88200
O339        O  0.35368433  0.24938337  0.65359518    -0.88300
O340        O  0.42624629  0.26535492  0.64406602    -0.75300
Mg341      Mg  0.23454205  0.12873505  0.70756249     1.58000
O342        O  0.26462777  0.25410545  0.71636209    -0.82700
H343        H  0.23733049  0.02890989  0.65343338    -0.06400
O344        O  0.39345081  0.15635410  0.64431089    -0.88000
H345        H  0.45730488  0.19348082  0.66164636    -0.06300
H346        H  0.28564198  0.14987276  0.58360458    -0.06400
C347        C  0.41932715  0.16841901  0.66380839     0.87100
C348        C  0.25214235  0.06003042  0.66591881     0.87700
C349        C  0.30788234  0.14776937  0.59870783     0.87700
H350        H  0.41177449  0.30374076  0.66997482    -0.06400
O351        O  0.34952370  0.23215648  0.71442912    -0.75400
Mg352      Mg  0.41529683  0.20841853  0.61388403     1.58000
H353        H  0.36283074  0.18920104  0.73793267    -0.06400
C354        C  0.36427818  0.03008942  0.68018926     0.92700
O355        O  0.38361536  0.08298614  0.60165516    -0.82700
C356        C  0.40857107  0.11178277  0.58359782     0.92800
O357        O  0.21391639  0.07189666  0.73989894    -0.82700
Mg358      Mg  0.30900763  0.25085174  0.68444998     1.58200
O359        O  0.37740422  0.05514527  0.65965833    -0.81000
O360        O  0.31092464  0.30286964  0.62338685    -0.82700
C361        C  0.15938933  0.37621589  0.84617574     0.02400
C362        C  0.20299712  0.37492253  0.84524328     0.02300
C363        C  0.20805446  0.34550221  0.82685615    -0.18200
C364        C  0.17031828  0.31455513  0.81059264     0.02400
C365        C  0.12552712  0.31342437  0.81228204     0.02300
C366        C  0.12158801  0.34583991  0.82935774    -0.18200
H367        H  0.08796153  0.34606749  0.83027273     0.04400
H368        H  0.24179859  0.34545012  0.82581929     0.04400
C369        C  0.14368663  0.81482299  0.85449504     0.02400
C370        C  0.18773823  0.85941312  0.85388523     0.02300
C371        C  0.19503526  0.89162593  0.83348169    -0.18200
C372        C  0.16055925  0.88146100  0.81395219     0.02400
C373        C  0.11576272  0.83813775  0.81518325     0.02300
C374        C  0.10832087  0.80551685  0.83545941    -0.18200
H375        H  0.07455607  0.77187258  0.83625918     0.04400
H376        H  0.22886264  0.92520138  0.83246726     0.04400
O377        O  0.90619517  0.21734023  0.67349534    -0.88300
C378        C  0.80325555  0.16741679  0.72831167     0.87800
Mg379      Mg  0.90525232  0.25694009  0.63955944     1.58100
O380        O  0.81560182  0.08965580  0.68533672    -0.88000
O381        O  0.92500474  0.16471519  0.68732334    -0.75300
C382        C  0.68857472  0.12636125  0.58795982     0.92800
O383        O  0.84117025  0.26093052  0.68957396    -0.75200
O384        O  0.72130797  0.17074762  0.58753460    -0.82700
Mg385      Mg  0.89616248  0.24418743  0.70947158     1.58000
C386        C  0.68630544  0.98593196  0.65503557     0.92700
O387        O  0.95165022  0.23378251  0.73234657    -0.80900
H388        H  0.85321039  0.06293539  0.66825252    -0.06300
C389        C  0.71535977  0.12907575  0.66194901     0.87700
O390        O  0.88192162  0.19162469  0.61353173    -0.75400
O391        O  0.84162420  0.17308243  0.71959805    -0.88200
O392        O  0.72154912  0.00284942  0.67026238    -0.81000
C393        C  0.76692016  0.03085955  0.74620617     0.92800
C394        C  0.95721427  0.20501793  0.74711546     0.92700
Mg395      Mg  0.74933154  0.08418338  0.62424845     1.58000
O396        O  0.69299987  0.09567912  0.60183362    -0.80900
O397        O  0.80685251  0.06965202  0.64399177    -0.75200
O398        O  0.81039618  0.06544083  0.74830441    -0.81000
O399        O  0.95806213  0.31734167  0.69928550    -0.82700
O400        O  0.83428163  0.26305322  0.58640430    -0.81000
C401        C  0.82640738  0.07375376  0.66615520     0.87100
O402        O  0.80342354  0.15510389  0.61395098    -0.88200
O403        O  0.74157538  0.11130863  0.66029575    -0.88300
O404        O  0.72342330  0.16535431  0.64840306    -0.75300
Mg405      Mg  0.86600426  0.12052907  0.71722783     1.58000
O406        O  0.74188586  0.02770391  0.72671625    -0.82700
H407        H  0.96332746  0.21494747  0.65992481    -0.06400
O408        O  0.83355137  0.24043246  0.64846391    -0.88000
H409        H  0.79799316  0.27044716  0.66432477    -0.06300
H410        H  0.83965895  0.13373198  0.59130362    -0.06400
C411        C  0.82336342  0.25793158  0.66710936     0.87100
C412        C  0.93287317  0.19997063  0.67289619     0.87700
C413        C  0.84128495  0.15950186  0.60528558     0.87700
H414        H  0.68527754  0.11366410  0.67520539    -0.06400
O415        O  0.76301891  0.13414494  0.72018182    -0.75400
Mg416      Mg  0.78113819  0.20907480  0.61790685     1.58000
H417        H  0.80398519  0.19260712  0.74241112    -0.06400
C418        C  0.96456663  0.34193738  0.67893116     0.92700
O419        O  0.90580567  0.29881571  0.60493048    -0.82700
C420        C  0.87809129  0.29694018  0.58689803     0.92800
O421        O  0.92499582  0.16046213  0.74882716    -0.82700
Mg422      Mg  0.74320854  0.07042525  0.69316883     1.58200
O423        O  0.93410053  0.32725910  0.66084167    -0.81000
O424        O  0.68736803  0.01002730  0.63526955    -0.82700
O425        O  0.74095820  0.62720940  0.66001010    -0.88300
C426        C  0.84600364  0.67385644  0.60560967     0.87800
Mg427      Mg  0.73500811  0.67281848  0.68887346     1.58100
O428        O  0.84346181  0.59145893  0.65192212    -0.88000
O429        O  0.73210771  0.55646010  0.65108612    -0.75300
C430        C  0.95096484  0.76836948  0.74459112     0.92800
O431        O  0.80116483  0.73224089  0.63595717    -0.75200
O432        O  0.91970159  0.78194620  0.74202304    -0.82700
Mg433      Mg  0.75091234  0.65434084  0.62156740     1.58000
C434        C  0.97634770  0.63784808  0.69116047     0.92700
O435        O  0.69687361  0.57959273  0.60757761    -0.80900
H436        H  0.80751507  0.52931575  0.67124346    -0.06300
C437        C  0.93203848  0.73810663  0.67019167     0.87700
O438        O  0.76078273  0.64060541  0.72039097    -0.75400
O439        O  0.81024408  0.64266438  0.61695200    -0.88200
O440        O  0.95737827  0.62588714  0.66876207    -0.81000
C441        C  0.89160713  0.57870832  0.59288740     0.92800
C442        C  0.69909277  0.55705388  0.58806696     0.92700
Mg443      Mg  0.89470810  0.66245382  0.71168928     1.58000
O444        O  0.94525459  0.73094748  0.73299674    -0.80900
O445        O  0.84456341  0.58733419  0.69441758    -0.75200
O446        O  0.84776255  0.56922243  0.59142176    -0.81000
O447        O  0.68643928  0.66232256  0.62457041    -0.82700
O448        O  0.80262229  0.75701843  0.73826240    -0.81000
C449        C  0.83130567  0.56778067  0.67227406     0.87100
O450        O  0.83831469  0.67923439  0.71562444    -0.88200
O451        O  0.90990023  0.69411516  0.67355155    -0.88300
O452        O  0.91875957  0.76519837  0.68087664    -0.75300
Mg453      Mg  0.79074536  0.56850699  0.62062695     1.58000
O454        O  0.91941596  0.60558147  0.61062813    -0.82700
H455        H  0.69063497  0.56692098  0.67712174    -0.06400
O456        O  0.80652345  0.72929535  0.67841483    -0.88000
H457        H  0.83952533  0.79111202  0.65848301    -0.06300
H458        H  0.80600238  0.63113086  0.74401214    -0.06400
C459        C  0.81646721  0.75250708  0.65786341     0.87100
C460        C  0.72007428  0.58317263  0.66348329     0.87700
C461        C  0.80225456  0.65003730  0.72759482     0.87700
H462        H  0.96300577  0.75383616  0.65754515    -0.06400
O463        O  0.88775329  0.68419662  0.61276144    -0.75400
Mg464      Mg  0.85938132  0.75470851  0.70959652     1.58000
H465        H  0.84169898  0.69375252  0.58987237    -0.06400
C466        C  0.67290859  0.68191410  0.64109514     0.92700
O467        O  0.73077525  0.72065100  0.71920565    -0.82700
C468        C  0.75886667  0.74781149  0.73678833     0.92800
O469        O  0.73383971  0.54832247  0.58636291    -0.82700
Mg470      Mg  0.91507083  0.65084213  0.64281982     1.58200
O471        O  0.69684589  0.70056214  0.66159756    -0.81000
O472        O  0.95826936  0.65104756  0.70889062    -0.82700
C473        C  0.61010663  0.82595898  0.84779067     0.02400
C474        C  0.60264997  0.77961994  0.84141745     0.02300
C475        C  0.62922193  0.77585251  0.82066368    -0.18200
C476        C  0.66345757  0.81611512  0.80661825     0.02400
C477        C  0.67048186  0.86225265  0.81299658     0.02300
C478        C  0.64354972  0.86603920  0.83340820    -0.18200
H479        H  0.64824119  0.90115800  0.83796890     0.04400
H480        H  0.62434927  0.74077951  0.81583439     0.04400
C481        C  0.02042109  0.48386974  0.47681871     0.02400
C482        C  0.02292444  0.52940581  0.47695061     0.02300
C483        C  0.99751212  0.53875089  0.49621216    -0.18200
C484        C  0.96932479  0.50415381  0.51504607     0.02400
C485        C  0.96926930  0.45985317  0.51556456     0.02300
C486        C  0.99501211  0.45077654  0.49665758    -0.18200
H487        H  0.99468235  0.41674724  0.49718423     0.04400
H488        H  0.99969557  0.57362352  0.49650321     0.04400
C489        C  0.50970496  0.53617395  0.47891436     0.02400
C490        C  0.46342211  0.49481961  0.48170084     0.02300
C491        C  0.45621008  0.46330088  0.50242204    -0.18200
C492        C  0.49373472  0.46977491  0.51909406     0.02400
C493        C  0.53994118  0.51058984  0.51612552     0.02300
C494        C  0.54705742  0.54315673  0.49597459    -0.18200
H495        H  0.58211866  0.57496222  0.49377369     0.04400
H496        H  0.42080034  0.43258366  0.50548846     0.04400
C497        C  0.47338605  0.97904076  0.47315686     0.02400
C498        C  0.52063213  0.98606542  0.47472781     0.02300
C499        C  0.55155621  0.01616509  0.49431265    -0.18200
C500        C  0.53715198  0.03983624  0.51201856     0.02400
C501        C  0.48965148  0.03171782  0.51082749     0.02300
C502        C  0.45894064  0.00236683  0.49108041    -0.18200
H503        H  0.42267381  0.99655936  0.49007790     0.04400
H504        H  0.58735455  0.02092459  0.49594965     0.04400
O505        O  0.96320414  0.05481886  0.02094115    -0.88300
C506        C  0.93251646  0.95260085  0.96544384     0.87800
Mg507      Mg  0.03207058  0.11657446  0.02557066     1.58100
O508        O  0.93899262  0.91388793  0.02837568    -0.88000
O509        O  0.91094441  0.99280873  0.04367504    -0.75300
C510        C  0.17474629  0.02337669  0.02476346     0.92800
O511        O  0.01097785  0.06855949  0.96377028    -0.75200
O512        O  0.17820886  0.06417396  0.02081322    -0.82700
Mg513      Mg  0.93648644  0.04007865  0.98170666     1.58000
C514        C  0.02110734  0.84697715  0.03874163     0.92700
O515        O  0.86211821  0.01602465  0.99537610    -0.80900
H516        H  0.91394822  0.89747106  0.06457024    -0.06300
C517        C  0.06001157  0.96568823  0.98493287     0.87700
O518        O  0.04939081  0.08026501  0.05924004    -0.75400
O519        O  0.92604328  0.96933375  0.98549863    -0.88200
O520        O  0.98384360  0.84052130  0.02646321    -0.81000
C521        C  0.85233989  0.81998772  0.98927620     0.92800
C522        C  0.82324943  0.97940297  0.00221311     0.92700
Mg523      Mg  0.06104716  0.96149720  0.04357819     1.58000
O524        O  0.13530349  0.98627035  0.03011799    -0.80900
O525        O  0.98652910  0.93078009  0.06166662    -0.75200
O526        O  0.84654563  0.85571972  0.99455763    -0.81000
O527        O  0.94557070  0.11395988  0.97644875    -0.82700
O528        O  0.15020392  0.14577595  0.03322794    -0.81000
C529        C  0.94489325  0.91261599  0.05191403     0.87100
O530        O  0.07072934  0.03254639  0.04088480    -0.88200
O531        O  0.03473186  0.94870503  0.00443800    -0.88300
O532        O  0.08958702  0.01041002  0.98268879    -0.75300
Mg533      Mg  0.88230206  0.92638923  0.01748721     1.58000
O534        O  0.89290353  0.82252040  0.99190674    -0.82700
H535        H  0.94436577  0.06142244  0.05689241    -0.06400
O536        O  0.05876343  0.08700093  0.99710086    -0.88000
H537        H  0.08346204  0.10031146  0.96076001    -0.06300
H538        H  0.07052709  0.03935243  0.07934654    -0.06400
C539        C  0.05267050  0.08661876  0.97348126     0.87100
C540        C  0.93947596  0.03768629  0.04093707     0.87700
C541        C  0.06418789  0.05021309  0.06057582     0.87700
H542        H  0.05589476  0.94202954  0.96907050    -0.06400
O543        O  0.94901325  0.92399984  0.96600221    -0.75400
Mg544      Mg  0.11601548  0.07595979  0.00942399     1.58000
H545        H  0.92540608  0.96378258  0.94696679    -0.06400
C546        C  0.97994764  0.15531679  0.98221780     0.92700
O547        O  0.10563505  0.18105170  0.02937475    -0.82700
C548        C  0.14570244  0.18319865  0.03325286     0.92800
O549        O  0.82060523  0.93928118  0.00735322    -0.82700
Mg550      Mg  0.96625007  0.88657963  0.99867409     1.58200
O551        O  0.01456583  0.16019677  0.99636580    -0.81000
O552        O  0.05393871  0.88833840  0.04560034    -0.82700
O553        O  0.62438900  0.36944402  0.32426732    -0.88300
C554        C  0.73465960  0.40948936  0.37375061     0.87800
Mg555      Mg  0.56351835  0.29883036  0.32762623     1.58100
O556        O  0.74973035  0.38621041  0.30884214    -0.88000
O557        O  0.67540553  0.42065137  0.29681289    -0.75300
C558        C  0.64494642  0.14937830  0.32517795     0.92800
O559        O  0.62032841  0.33678128  0.38329082    -0.75200
O560        O  0.61054974  0.15374861  0.33400423    -0.82700
Mg561      Mg  0.64320373  0.40727431  0.36026260     1.58000
C562        C  0.82405327  0.31238193  0.29883068     0.92700
O563        O  0.66729447  0.48189285  0.34256448    -0.80900
H564        H  0.75555632  0.40226612  0.27106501    -0.06300
C565        C  0.72067295  0.27636066  0.35849965     0.87700
O566        O  0.58839670  0.27331483  0.29203346    -0.75400
O567        O  0.71418594  0.41640217  0.35525755    -0.88200
O568        O  0.82112355  0.35004273  0.30110449    -0.81000
C569        C  0.85926113  0.48136914  0.33359223     0.92800
C570        C  0.70748494  0.51820287  0.33638425     0.92700
Mg571      Mg  0.70931919  0.26071847  0.30120202     1.58000
O572        O  0.68453005  0.18536080  0.31780654    -0.80900
O573        O  0.73260046  0.33188784  0.27899909    -0.75200
O574        O  0.82343764  0.48813629  0.33438493    -0.81000
O575        O  0.56644473  0.39720322  0.36198642    -0.82700
O576        O  0.53025579  0.17899392  0.32830539    -0.81000
C577        C  0.74646145  0.37494667  0.28578069     0.87100
O578        O  0.63852528  0.25143441  0.30727788    -0.88200
O579        O  0.72851642  0.29715364  0.33748008    -0.88300
O580        O  0.67819608  0.24720457  0.36560610    -0.75300
Mg581      Mg  0.74701965  0.44930841  0.31847597     1.58000
O582        O  0.85347839  0.43952843  0.33297195    -0.82700
H583        H  0.60353180  0.38252622  0.29012280    -0.06400
O584        O  0.60398898  0.28192637  0.35386774    -0.88000
H585        H  0.59846792  0.26678920  0.39175968    -0.06300
H586        H  0.62098313  0.24568034  0.26976214    -0.06400
C587        C  0.60721520  0.29368804  0.37684995     0.87100
C588        C  0.63278742  0.39043058  0.30328249     0.87700
C589        C  0.61618243  0.25597550  0.28894853     0.87700
H590        H  0.75032930  0.28403866  0.37128169    -0.06400
O591        O  0.76143515  0.39094699  0.37077734    -0.75400
Mg592      Mg  0.60662319  0.21870622  0.34434501     1.58000
H593        H  0.72878216  0.41846789  0.39304084    -0.06400
C594        C  0.52913959  0.35577273  0.36162141     0.92700
O595        O  0.49886147  0.22638972  0.33260466    -0.82700
C596        C  0.49429992  0.18499781  0.33124343     0.92800
O597        O  0.74335947  0.51466055  0.32923727    -0.82700
Mg598      Mg  0.78870466  0.36754002  0.33539071     1.58200
O599        O  0.53408020  0.31909830  0.36183768    -0.81000
O600        O  0.78625045  0.27120189  0.29833988    -0.82700
O601        O  0.27421785  0.70049389  0.66919142    -0.88300
C602        C  0.37832916  0.74004214  0.72252993     0.87800
Mg603      Mg  0.21406915  0.62964916  0.67012776     1.58100
O604        O  0.40641667  0.72198234  0.65913264    -0.88000
O605        O  0.33034958  0.75154752  0.64341165    -0.75300
C606        C  0.30197320  0.48622633  0.66862252     0.92800
O607        O  0.26301619  0.66453527  0.72828201    -0.75200
O608        O  0.26697940  0.48907689  0.67789605    -0.82700
Mg609      Mg  0.28751707  0.73563590  0.70564426     1.58000
C610        C  0.48131816  0.65077584  0.64610317     0.92700
O611        O  0.31192136  0.80997725  0.68780008    -0.80900
H612        H  0.41739233  0.74301023  0.62208979    -0.06300
C613        C  0.37168841  0.60966609  0.70715319     0.87700
O614        O  0.24429292  0.60772602  0.63577151    -0.75400
O615        O  0.35912473  0.74578004  0.70312311    -0.88200
O616        O  0.48269223  0.68467452  0.65930539    -0.81000
C617        C  0.50743478  0.81867953  0.68589830     0.92800
C618        C  0.35199854  0.84645177  0.68172868     0.92700
Mg619      Mg  0.36535324  0.59954683  0.64814214     1.58000
O620        O  0.34161901  0.52326781  0.66237869    -0.80900
O621        O  0.38965786  0.67127783  0.62758218    -0.75200
O622        O  0.46950444  0.82024165  0.69078752    -0.81000
O623        O  0.21009784  0.72355449  0.70526739    -0.82700
O624        O  0.18260976  0.50954777  0.67134900    -0.81000
C625        C  0.40567383  0.71369431  0.63581164     0.87100
O626        O  0.29403345  0.58821234  0.65375570    -0.88200
O627        O  0.38349168  0.63202572  0.68652379    -0.88300
O628        O  0.32806122  0.58046001  0.71228746    -0.75300
Mg629      Mg  0.39828869  0.78180081  0.66856393     1.58000
O630        O  0.50613480  0.77855845  0.68481149    -0.82700
H631        H  0.25994567  0.71364711  0.63334024    -0.06400
O632        O  0.25102300  0.61149503  0.69852439    -0.88000
H633        H  0.24090790  0.59428495  0.73617349    -0.06300
H634        H  0.28080393  0.58170514  0.61571196    -0.06400
C635        C  0.25116088  0.62192146  0.72152689     0.87100
C636        C  0.28662344  0.72160402  0.64815776     0.87700
C637        C  0.27320710  0.59154434  0.63437875     0.87700
H638        H  0.39890795  0.61624414  0.72144102    -0.06400
O639        O  0.40800612  0.72473378  0.72085430    -0.75400
Mg640      Mg  0.25829678  0.55097802  0.68906522     1.58000
H641        H  0.36929330  0.74771258  0.74140310    -0.06400
C642        C  0.17279990  0.68207361  0.70433993     0.92700
O643        O  0.15073455  0.55696000  0.67110020    -0.82700
C644        C  0.14631003  0.51560614  0.67075289     0.92800
O645        O  0.38951747  0.84420985  0.67723060    -0.82700
Mg646      Mg  0.44240110  0.70363629  0.68769379     1.58200
O647        O  0.17691891  0.64497185  0.70299855    -0.81000
O648        O  0.44171568  0.61262620  0.64146304    -0.82700
C649        C  0.06090174  0.67855892  0.67809005    -0.05700
C650        C  0.02549604  0.64571686  0.69504278     0.00200
C651        C  0.03915888  0.62696980  0.71619145    -0.08400
C652        C  0.08827010  0.64178863  0.71951024    -0.05700
C653        C  0.12373933  0.67526102  0.70270571     0.00200
C654        C  0.10984669  0.69367197  0.68147258    -0.08300
C655        C  0.14627215  0.72756409  0.66180169     0.62100
H656        H  0.04982293  0.69305983  0.66223486     0.12800
H657        H  0.09938492  0.62667381  0.73503544     0.12800
C658        C  0.00191623  0.59006276  0.73437819     0.62300
F659        F  0.12477966  0.73952795  0.64209613    -0.22800
F660        F  0.16997054  0.70593578  0.65074122    -0.20100
F661        F  0.17925865  0.76964959  0.67383930    -0.19800
F662        F  0.96761596  0.55176187  0.72022869    -0.19900
F663        F  0.97997147  0.61059598  0.74825618    -0.20200
F664        F  0.02217717  0.57243998  0.75185947    -0.22900
C665        C  0.58624227  0.62869083  0.63637240    -0.05700
C666        C  0.62469507  0.67610463  0.63797606     0.00200
C667        C  0.61566342  0.71480794  0.63798904    -0.08400
C668        C  0.56770346  0.70447596  0.63739275    -0.05700
C669        C  0.52870788  0.65680032  0.63844143     0.00200
C670        C  0.53811592  0.61799919  0.63716343    -0.08300
C671        C  0.49836962  0.56569401  0.63823172     0.62100
H672        H  0.59439762  0.59968842  0.63608016     0.12800
H673        H  0.56035368  0.73399678  0.63788792     0.12800
C674        C  0.65634232  0.76648977  0.63914881     0.62300
F675        F  0.51617967  0.53427636  0.63685898    -0.22800
F676        F  0.46742147  0.55598502  0.61760856    -0.20100
F677        F  0.47327834  0.55668818  0.66124532    -0.19800
F678        F  0.68850367  0.77510916  0.61928223    -0.19900
F679        F  0.67988854  0.77463709  0.66259269    -0.20200
F680        F  0.63987606  0.79889639  0.63673323    -0.22900
C681        C  0.72873726  0.79832181  0.79699392    -0.05700
C682        C  0.69284515  0.80721384  0.78726717     0.00200
C683        C  0.67922858  0.79673545  0.76097048    -0.08400
C684        C  0.70307855  0.77916690  0.74530085    -0.05700
C685        C  0.73905568  0.77016471  0.75497698     0.00200
C686        C  0.75236585  0.78031496  0.78137209    -0.08300
C687        C  0.78969644  0.77032294  0.79339884     0.62100
H688        H  0.73682082  0.80385047  0.81744662     0.12800
H689        H  0.69332513  0.77195008  0.72507913     0.12800
C690        C  0.63917366  0.80309697  0.74937654     0.62300
F691        F  0.79318615  0.77755747  0.81988766    -0.22800
F692        F  0.83419454  0.80085223  0.78269458    -0.20100
F693        F  0.77759313  0.72304711  0.78897023    -0.19800
F694        F  0.65465460  0.85148598  0.74668031    -0.19900
F695        F  0.59886322  0.78204483  0.76501221    -0.20200
F696        F  0.62570073  0.78213604  0.72518802    -0.22900
C697        C  0.63907831  0.57310888  0.56680387    -0.05700
C698        C  0.66019870  0.54359161  0.56798342     0.00200
C699        C  0.64157936  0.50295034  0.55146602    -0.08400
C700        C  0.60262177  0.49355628  0.53476709    -0.05700
C701        C  0.58038367  0.52210379  0.53467860     0.00200
C702        C  0.59928098  0.56285204  0.55113316    -0.08300
C703        C  0.57958328  0.59726732  0.55338983     0.62100
H704        H  0.65341976  0.60491926  0.57884178     0.12800
H705        H  0.58960301  0.46396032  0.52133115     0.12800
C706        C  0.66185021  0.46918082  0.55171704     0.62300
F707        F  0.57181784  0.60252736  0.57918619    -0.22800
F708        F  0.53667552  0.58225065  0.54061828    -0.20100
F709        F  0.61308457  0.64172369  0.54362139    -0.19800
F710        F  0.65955741  0.45178024  0.57652581    -0.19900
F711        F  0.70911368  0.49348384  0.54350641    -0.20200
F712        F  0.63648310  0.43019997  0.53553011    -0.22900
C713        C  0.88861485  0.54346888  0.54928981    -0.05700
C714        C  0.91071742  0.55714661  0.57371247     0.00200
C715        C  0.94927272  0.54827578  0.57944711    -0.08400
C716        C  0.96582720  0.52933993  0.55998046    -0.05700
C717        C  0.94516314  0.51794248  0.53532486     0.00200
C718        C  0.90510874  0.52401440  0.52999571    -0.08300
C719        C  0.87996001  0.51032852  0.50397961     0.62100
H720        H  0.85882665  0.54929260  0.54511015     0.12800
H721        H  0.99641257  0.52466400  0.56364956     0.12800
C722        C  0.97306587  0.55781669  0.60594500     0.62300
F723        F  0.83797069  0.51256934  0.50406749    -0.22800
F724        F  0.86827489  0.46383209  0.49777364    -0.20100
F725        F  0.90973541  0.54144870  0.48511558    -0.19800
F726        F  0.93850161  0.53610942  0.62500814    -0.19900
F727        F  0.99963372  0.60681208  0.61029326    -0.20200
F728        F  0.00399604  0.53951500  0.60800313    -0.22900
C729        C  0.59872246  0.94214778  0.65917875    -0.05700
C730        C  0.64169445  0.94148639  0.66228939     0.00200
C731        C  0.64100186  0.90131983  0.67432895    -0.08400
C732        C  0.59659392  0.86278711  0.68261580    -0.05700
C733        C  0.55326892  0.86346337  0.67965328     0.00200
C734        C  0.55444196  0.90412944  0.66759612    -0.08300
C735        C  0.50956586  0.90778436  0.66290401     0.62100
H736        H  0.60037099  0.97381519  0.65062027     0.12800
H737        H  0.59545141  0.83162007  0.69156092     0.12800
C738        C  0.68657741  0.89859801  0.67802662     0.62300
F739        F  0.51943680  0.94946421  0.64978269    -0.22800
F740        F  0.48906059  0.90821486  0.68634608    -0.20100
F741        F  0.47721578  0.86935740  0.64809871    -0.19800
F742        F  0.71482715  0.93060389  0.69694756    -0.19900
F743        F  0.71202084  0.90961622  0.65503638    -0.20200
F744        F  0.67669152  0.85313979  0.68563691    -0.22900
C745        C  0.01713433  0.42723518  0.68926128    -0.05700
C746        C  0.00974459  0.38694400  0.67536768     0.00200
C747        C  0.04616386  0.38917501  0.65901326    -0.08400
C748        C  0.08982101  0.43253528  0.65728731    -0.05700
C749        C  0.09766944  0.47318125  0.67126388     0.00200
C750        C  0.06070451  0.47080311  0.68754467    -0.08300
C751        C  0.06730574  0.51309898  0.70384173     0.62100
H752        H  0.98842608  0.42402262  0.70161176     0.12800
H753        H  0.11852880  0.43489583  0.64524571     0.12800
C754        C  0.03938329  0.34543107  0.64412639     0.62300
F755        F  0.02881505  0.50048943  0.72029953    -0.22800
F756        F  0.07123392  0.54961775  0.68786958    -0.20100
F757        F  0.10812739  0.52976027  0.71893308    -0.19800
F758        F  0.00179334  0.33093261  0.62689142    -0.19900
F759        F  0.02940913  0.30824155  0.66115782    -0.20200
F760        F  0.07997426  0.35493871  0.63018394    -0.22900
C761        C  0.67146749  0.92343729  0.78410669    -0.05700
C762        C  0.69861591  0.90633162  0.79681350     0.00200
C763        C  0.74953331  0.93423012  0.79567738    -0.08400
C764        C  0.77099299  0.97539752  0.77943396    -0.05700
C765        C  0.74342487  0.99138205  0.76586189     0.00200
C766        C  0.69250685  0.96572383  0.76924122    -0.08300
C767        C  0.65936069  0.98202976  0.75743440     0.62100
H768        H  0.63268813  0.90261620  0.78578062     0.12800
H769        H  0.80973053  0.99517438  0.77733937     0.12800
C770        C  0.78283201  0.92354521  0.81159905     0.62300
F771        F  0.61481505  0.96014797  0.76938918    -0.22800
F772        F  0.65209068  0.97016433  0.73146777    -0.20100
F773        F  0.67894725  0.03118878  0.76030752    -0.19800
F774        F  0.80746816  0.90911976  0.79535476    -0.19900
F775        F  0.75893150  0.88839030  0.83011379    -0.20200
F776        F  0.81565743  0.96484669  0.82436105    -0.22900
C777        C  0.56463645  0.04789032  0.55737282    -0.05700
C778        C  0.57151728  0.06899527  0.53282920     0.00200
C779        C  0.61385270  0.11358571  0.52804424    -0.08400
C780        C  0.65031844  0.13227792  0.54696722    -0.05700
C781        C  0.64541463  0.10874229  0.57075300     0.00200
C782        C  0.60030019  0.06746302  0.57668727    -0.08300
C783        C  0.58926735  0.04323477  0.60304503     0.62100
H784        H  0.53175015  0.01432586  0.56092362     0.12800
H785        H  0.68368871  0.16493551  0.54264997     0.12800
C786        C  0.62250949  0.14316280  0.50359038     0.62300
F787        F  0.54038019  0.01311057  0.60647373    -0.22800
F788        F  0.60506178  0.07742297  0.62242227    -0.20100
F789        F  0.61146572  0.01590736  0.60539806    -0.19800
F790        F  0.63080288  0.18845274  0.51025886    -0.19900
F791        F  0.58411062  0.12338414  0.48670139    -0.20200
F792        F  0.66257321  0.14787028  0.49092867    -0.22900
C793        C  0.94784025  0.37250633  0.57048921    -0.05700
C794        C  0.89886572  0.33763111  0.56741926     0.00200
C795        C  0.87253661  0.34529431  0.54751755    -0.08400
C796        C  0.89618931  0.38759011  0.53214311    -0.05700
C797        C  0.94481094  0.42212327  0.53576167     0.00200
C798        C  0.97120511  0.41415453  0.55519863    -0.08300
C799        C  0.02439530  0.44737810  0.56058816     0.62100
H800        H  0.96906744  0.36757143  0.58522868     0.12800
H801        H  0.87728429  0.39327630  0.51640600     0.12800
C802        C  0.82031322  0.30912516  0.54190974     0.62300
F803        F  0.03033480  0.46089856  0.58632544    -0.22800
F804        F  0.04510824  0.48880607  0.54574766    -0.20100
F805        F  0.04889222  0.42280677  0.55592218    -0.19800
F806        F  0.79222784  0.30488286  0.56312325    -0.19900
F807        F  0.81576066  0.26486796  0.53626660    -0.20200
F808        F  0.80289430  0.32282198  0.52094177    -0.22900
C809        C  0.04060476  0.83731264  0.80016753    -0.05700
C810        C  0.07641053  0.82497239  0.79550138     0.00200
C811        C  0.07163606  0.79670212  0.77351487    -0.08400
C812        C  0.03208832  0.78267256  0.75688039    -0.05700
C813        C  0.99504721  0.79332039  0.76173475     0.00200
C814        C  0.99990049  0.82195167  0.78377044    -0.08300
C815        C  0.96176871  0.83480697  0.79063270     0.62100
H816        H  0.04416930  0.85807930  0.81733804     0.12800
H817        H  0.02931323  0.76167921  0.73995144     0.12800
C818        C  0.10771261  0.78046596  0.76768122     0.62300
F819        F  0.97307210  0.86199269  0.81298182    -0.22800
F820        F  0.91830500  0.79321946  0.79457793    -0.20100
F821        F  0.95730031  0.86136416  0.77076478    -0.19800
F822        F  0.11125535  0.75511669  0.78847180    -0.19900
F823        F  0.15183423  0.82014416  0.76283598    -0.20200
F824        F  0.09503117  0.75100159  0.74616299    -0.22900
C825        C  0.08648893  0.28606232  0.76919297    -0.05700
C826        C  0.08284357  0.27991527  0.79615404     0.00200
C827        C  0.03784362  0.24472308  0.80681094    -0.08400
C828        C  0.99808250  0.21923667  0.79012849    -0.05700
C829        C  0.00187112  0.22632910  0.76321256     0.00200
C830        C  0.04754521  0.25892895  0.75251032    -0.08300
C831        C  0.05555622  0.26580378  0.72348172     0.62100
H832        H  0.11970725  0.31413800  0.76112045     0.12800
H833        H  0.96326799  0.19444876  0.79835604     0.12800
C834        C  0.02894987  0.23294107  0.83547654     0.62300
F835        F  0.10396488  0.28885264  0.71731665    -0.22800
F836        F  0.03675594  0.29340095  0.71409592    -0.20100
F837        F  0.03370895  0.22159801  0.71126823    -0.19800
F838        F  0.07042472  0.25323162  0.85007056    -0.19900
F839        F  0.00674767  0.18361810  0.83891320    -0.20200
F840        F  0.99894746  0.24890794  0.84477224    -0.22900
C841        C  0.25231578  0.35763392  0.64592458    -0.05700
C842        C  0.29295498  0.35289670  0.64881308     0.00200
C843        C  0.33563045  0.39061395  0.65953306    -0.08400
C844        C  0.33653283  0.43317923  0.66646534    -0.05700
C845        C  0.29607317  0.43851719  0.66339560     0.00200
C846        C  0.25303924  0.40028188  0.65279124    -0.08300
C847        C  0.20858301  0.40453814  0.64774620     0.62100
H848        H  0.22003143  0.32751292  0.63815393     0.12800
H849        H  0.36892088  0.46271644  0.67453447     0.12800
C850        C  0.37921529  0.38509077  0.66475792     0.62300
F851        F  0.17366191  0.36512206  0.63450585    -0.22800
F852        F  0.22053601  0.44500724  0.63289739    -0.20100
F853        F  0.18888242  0.40751318  0.67097106    -0.19800
F854        F  0.39470312  0.37440530  0.64210681    -0.19900
F855        F  0.36705689  0.34840844  0.68248343    -0.20200
F856        F  0.41720164  0.42662381  0.67481128    -0.22900
C857        C  0.37363650  0.92254239  0.70272420    -0.05700
C858        C  0.35602449  0.89358317  0.68072581     0.00200
C859        C  0.34548509  0.91086930  0.65801613    -0.08400
C860        C  0.35107535  0.95701405  0.65842082    -0.05700
C861        C  0.36658530  0.98554041  0.68083762     0.00200
C862        C  0.37909223  0.96872705  0.70325438    -0.08300
C863        C  0.39888489  0.99941893  0.72731333     0.62100
H864        H  0.38248465  0.90831929  0.71961188     0.12800
H865        H  0.34165989  0.97049034  0.64143484     0.12800
C866        C  0.32832761  0.88044688  0.63370014     0.62300
F867        F  0.41712069  0.97957379  0.74469416    -0.22800
F868        F  0.36291368  0.00352064  0.73965090    -0.20100
F869        F  0.43568134  0.04469546  0.72054867    -0.19800
F870        F  0.28608266  0.83819306  0.63882813    -0.19900
F871        F  0.36280521  0.86947487  0.62557333    -0.20200
F872        F  0.31982141  0.90408306  0.61367427    -0.22900
C873        C  0.22873629  0.97030882  0.75989753    -0.05700
C874        C  0.20513391  0.99746186  0.75830223     0.00200
C875        C  0.16372560  0.98315203  0.77400743    -0.08400
C876        C  0.14886765  0.94331988  0.79092994    -0.05700
C877        C  0.17355616  0.91738450  0.79268576     0.00200
C878        C  0.21417648  0.93101463  0.77662059    -0.08300
C879        C  0.24488218  0.90688031  0.77620457     0.62100
H880        H  0.26033742  0.98027885  0.74819143     0.12800
H881        H  0.11898739  0.93347014  0.80393485     0.12800
C882        C  0.13559942  0.00973102  0.77352623     0.62300
F883        F  0.24755521  0.89350452  0.75109338    -0.22800
F884        F  0.22765354  0.86622369  0.79151789    -0.20100
F885        F  0.29078758  0.93945151  0.78443704    -0.19800
F886        F  0.12059125  0.01085104  0.74855725    -0.19900
F887        F  0.16412648  0.05617485  0.78242487    -0.20200
F888        F  0.09514723  0.98768233  0.78909616    -0.22900
C889        C  0.19872381  0.22492364  0.77700614    -0.05700
C890        C  0.21815515  0.24872805  0.75332199     0.00200
C891        C  0.21720258  0.29228796  0.74800466    -0.08400
C892        C  0.20053509  0.31137063  0.76723569    -0.05700
C893        C  0.18159624  0.28779773  0.79070837     0.00200
C894        C  0.18054894  0.24381191  0.79581372    -0.08300
C895        C  0.16153793  0.21779646  0.82135192     0.62100
H896        H  0.19887401  0.19181481  0.78101523     0.12800
H897        H  0.20291276  0.34598265  0.76429009     0.12800
C898        C  0.23288180  0.31931831  0.72226699     0.62300
F899        F  0.11515148  0.20868154  0.82511900    -0.22800
F900        F  0.19020633  0.24596337  0.84138206    -0.20100
F901        F  0.16089716  0.17428017  0.82204418    -0.19800
F902        F  0.20936787  0.28815967  0.70205513    -0.19900
F903        F  0.28205652  0.34001402  0.71926500    -0.20200
F904        F  0.22195168  0.35599279  0.72068834    -0.22900
C905        C  0.48658744  0.10150134  0.52964023    -0.05700
C906        C  0.47026036  0.05193322  0.53027773     0.00200
C907        C  0.43300011  0.02238017  0.54771412    -0.08400
C908        C  0.41287758  0.04347525  0.56344494    -0.05700
C909        C  0.42942293  0.09336221  0.56342588     0.00200
C910        C  0.46706770  0.12301862  0.54585229    -0.08300
C911        C  0.48669703  0.17690159  0.54372928     0.62100
H912        H  0.51451993  0.12322981  0.51587644     0.12800
H913        H  0.38408793  0.02010300  0.57644209     0.12800
C914        C  0.41294736  0.96847715  0.55090794     0.62300
F915        F  0.52266936  0.19807813  0.52530477    -0.22800
F916        F  0.50585987  0.19865659  0.56719309    -0.20100
F917        F  0.45017774  0.18559619  0.53656901    -0.19800
F918        F  0.43899360  0.95131687  0.53799981    -0.19900
F919        F  0.36618099  0.94445120  0.54192152    -0.20200
F920        F  0.41290091  0.95769898  0.57687299    -0.22900
C921        C  0.44427313  0.38428492  0.57633183    -0.05700
C922        C  0.45272809  0.34691345  0.56861728     0.00200
C923        C  0.48030869  0.35348699  0.54592586    -0.08400
C924        C  0.49448056  0.39519050  0.53080768    -0.05700
C925        C  0.48362646  0.43091344  0.53803142     0.00200
C926        C  0.45852753  0.42577770  0.56130568    -0.08300
C927        C  0.44571794  0.46326425  0.56997655     0.62100
H928        H  0.42448526  0.38000126  0.59399528     0.12800
H929        H  0.51259649  0.39942593  0.51251160     0.12800
C930        C  0.49341359  0.31644061  0.53702453     0.62300
F931        F  0.42196516  0.45154643  0.59353774    -0.22800
F932        F  0.41616073  0.46749144  0.55195015    -0.20100
F933        F  0.48711403  0.50706500  0.57265936    -0.19800
F934        F  0.45208824  0.27348264  0.53189153    -0.19900
F935        F  0.51976526  0.30955666  0.55606502    -0.20200
F936        F  0.52102453  0.33085787  0.51472678    -0.22900
C937        C  0.93125184  0.19350698  0.97104567    -0.05700
C938        C  0.97728229  0.19861107  0.97410723     0.00200
C939        C  0.01845164  0.24497515  0.97112262    -0.08400
C940        C  0.01168346  0.28468590  0.96744632    -0.05700
C941        C  0.96576086  0.27971728  0.96697247     0.00200
C942        C  0.92479796  0.23353809  0.96769532    -0.08300
C943        C  0.87484354  0.22686680  0.96456218     0.62100
H944        H  0.89997605  0.15803030  0.97252508     0.12800
H945        H  0.04254847  0.32063122  0.96650754     0.12800
C946        C  0.06937680  0.25323857  0.97198943     0.62300
F947        F  0.84004573  0.17873547  0.96339495    -0.22800
F948        F  0.87278629  0.24890626  0.94189879    -0.20100
F949        F  0.86420019  0.24724026  0.98517752    -0.19800
F950        F  0.07326312  0.22109194  0.95576864    -0.19900
F951        F  0.08112522  0.24751173  0.99697704    -0.20200
F952        F  0.10273787  0.29924252  0.96403466    -0.22900
C953        C  0.00073442  0.72148465  0.05004586    -0.05700
C954        C  0.03874253  0.72369527  0.03534885     0.00200
C955        C  0.07564059  0.76891442  0.02650635    -0.08400
C956        C  0.07011657  0.80944737  0.03004467    -0.05700
C957        C  0.02929985  0.80593695  0.04223363     0.00200
C958        C  0.99553506  0.76201321  0.05387852    -0.08300
C959        C  0.95408117  0.75594514  0.07067129     0.62100
H960        H  0.97355991  0.68724285  0.05787924     0.12800
H961        H  0.09636520  0.84376520  0.02182422     0.12800
C962        C  0.12076131  0.77456692  0.01379548     0.62300
F963        F  0.95685899  0.73774309  0.09454305    -0.22800
F964        F  0.91108726  0.72375382  0.05912590    -0.20100
F965        F  0.95432280  0.79864517  0.07488964    -0.19800
F966        F  0.11031769  0.75416493  0.98945629    -0.19900
F967        F  0.13981681  0.75233866  0.02886234    -0.20200
F968        F  0.15546163  0.82250265  0.01113568    -0.22900
C969        C  0.09601354  0.73440739  0.91433894    -0.05700
C970        C  0.09935033  0.69367946  0.90703827     0.00200
C971        C  0.12001431  0.69467154  0.88246389    -0.08400
C972        C  0.13635085  0.73610611  0.86659320    -0.05700
C973        C  0.13251295  0.77618451  0.87411441     0.00200
C974        C  0.11121800  0.77496887  0.89822756    -0.08300
C975        C  0.10356818  0.81593059  0.90679848     0.62100
H976        H  0.08081981  0.73441767  0.93300366     0.12800
H977        H  0.15141223  0.73724574  0.84768659     0.12800
C978        C  0.12386113  0.65221704  0.87244741     0.62300
F979        F  0.07912657  0.80612890  0.93009390    -0.22800
F980        F  0.07718531  0.82432121  0.88842505    -0.20100
F981        F  0.14744306  0.85691795  0.91000987    -0.19800
F982        F  0.07895504  0.61135612  0.87236741    -0.19900
F983        F  0.15472451  0.64480512  0.88797726    -0.20200
F984        F  0.14153889  0.65972519  0.84741063    -0.22900
C985        C  0.12812197  0.42170456  0.90768473    -0.05700
C986        C  0.12622230  0.46223034  0.89855811     0.00200
C987        C  0.13930653  0.47657962  0.87242732    -0.08400
C988        C  0.15151750  0.44844200  0.85629535    -0.05700
C989        C  0.15084419  0.40643859  0.86527137     0.00200
C990        C  0.13849170  0.39274067  0.89151666    -0.08300
C991        C  0.13243082  0.34667722  0.90349054     0.62100
H992        H  0.11803472  0.41038712  0.92761243     0.12800
H993        H  0.16022193  0.45820083  0.83613917     0.12800
C994        C  0.13843684  0.52002438  0.86132312     0.62300
F995        F  0.16598629  0.35825637  0.92296339    -0.22800
F996        F  0.13752980  0.31696313  0.88613439    -0.20100
F997        F  0.08687954  0.32089388  0.91404036    -0.19800
F998        F  0.17060191  0.56082561  0.87464286    -0.19900
F999        F  0.09278505  0.51392188  0.86355023    -0.20200
F1000       F  0.15114743  0.52707680  0.83541446    -0.22900
C1001       C  0.22758269  0.23535859  0.01830576    -0.05700
C1002       C  0.18985878  0.23058892  0.03399513     0.00200
C1003       C  0.19439371  0.27116237  0.04746288    -0.08400
C1004       C  0.23705749  0.31570325  0.04437110    -0.05700
C1005       C  0.27362204  0.32029717  0.02777306     0.00200
C1006       C  0.26929033  0.27961720  0.01472194    -0.08300
C1007       C  0.30870958  0.28289620  0.99701515     0.62100
H1008       H  0.22334069  0.20415902  0.00793749     0.12800
H1009       H  0.24190530  0.34733809  0.05450340     0.12800
C1010       C  0.15508066  0.26736887  0.06524120     0.62300
F1011       F  0.29812843  0.23842637  0.98738417    -0.22800
F1012       F  0.35141979  0.30135006  0.01040697    -0.20100
F1013       F  0.31481739  0.31270056  0.97627763    -0.19800
F1014       F  0.14123758  0.22910964  0.08214980    -0.19900
F1015       F  0.11590488  0.26045817  0.05078584    -0.20200
F1016       F  0.17034426  0.30866648  0.07976959    -0.22900
C1017       C  0.76859990  0.77685411  0.97357384    -0.05700
C1018       C  0.80936805  0.77412462  0.98107239     0.00200
C1019       C  0.80568503  0.72797150  0.98315189    -0.08400
C1020       C  0.76082467  0.68676874  0.97859442    -0.05700
C1021       C  0.71986435  0.68995791  0.97281847     0.00200
C1022       C  0.72350070  0.73571900  0.97033455    -0.08300
C1023       C  0.67953089  0.74151555  0.96655251     0.62100
H1024       H  0.77163403  0.81189567  0.97156031     0.12800
H1025       H  0.75663897  0.65124246  0.98075964     0.12800
C1026       C  0.84752864  0.72123639  0.99132233     0.62300
F1027       F  0.69085841  0.78920337  0.96770400    -0.22800
F1028       F  0.64609523  0.71673784  0.98575014    -0.20100
F1029       F  0.65915452  0.72394967  0.94267848    -0.19800
F1030       F  0.86331120  0.74060642  0.01563973    -0.19900
F1031       F  0.88459223  0.74341885  0.97362479    -0.20200
F1032       F  0.83484665  0.67316128  0.99255927    -0.22900
C1033       C  0.50957011  0.68130296  0.88666389    -0.05700
C1034       C  0.53662190  0.66073691  0.89576096     0.00200
C1035       C  0.58122490  0.67403150  0.88370407    -0.08400
C1036       C  0.60117312  0.71368742  0.86699199    -0.05700
C1037       C  0.57553304  0.73623698  0.85853997     0.00200
C1038       C  0.52708208  0.71675456  0.86696452    -0.08300
C1039       C  0.49151058  0.72933020  0.85513660     0.62100
H1040       H  0.47409905  0.66900289  0.89465518     0.12800
H1041       H  0.63742575  0.72660133  0.86000262     0.12800
C1042       C  0.60835293  0.64649695  0.88633109     0.62300
F1043       F  0.45086789  0.68748423  0.84760590    -0.22800
F1044       F  0.50946032  0.75830958  0.83347613    -0.20100
F1045       F  0.47821891  0.75195133  0.87339707    -0.19800
F1046       F  0.58207926  0.60236242  0.89841000    -0.19900
F1047       F  0.65047311  0.67387649  0.89984228    -0.20200
F1048       F  0.61989735  0.63773115  0.86190724    -0.22900
C1049       C  0.24556380  0.36284548  0.88130365    -0.05700
C1050       C  0.24083264  0.39608889  0.86565880     0.00200
C1051       C  0.27432110  0.44577533  0.86860483    -0.08400
C1052       C  0.30862820  0.46022506  0.88871440    -0.05700
C1053       C  0.31253156  0.42675339  0.90492987     0.00200
C1054       C  0.28109588  0.37677338  0.90040827    -0.08300
C1055       C  0.28458815  0.33740920  0.91512117     0.62100
H1056       H  0.22078525  0.32496151  0.87818182     0.12800
H1057       H  0.33317914  0.49831543  0.89146697     0.12800
C1058       C  0.27730677  0.48480087  0.85068576     0.62300
F1059       F  0.25685798  0.29261670  0.90397647    -0.22800
F1060       F  0.26840395  0.33486209  0.94016103    -0.20100
F1061       F  0.33159383  0.34677166  0.91526901    -0.19800
F1062       F  0.24582635  0.46703796  0.83010423    -0.19900
F1063       F  0.32328527  0.51043559  0.84063325    -0.20200
F1064       F  0.26773195  0.51588710  0.86457458    -0.22900
C1065       C  0.74490908  0.03573121  0.00218646    -0.05700
C1066       C  0.70499209  0.00100568  0.98853732     0.00200
C1067       C  0.70009320  0.95496773  0.98414486    -0.08400
C1068       C  0.73864294  0.94785282  0.99045765    -0.05700
C1069       C  0.78013575  0.98421637  0.00209425     0.00200
C1070       C  0.78196261  0.02744547  0.00987428    -0.08300
C1071       C  0.82259933  0.06501736  0.02619786     0.62100
H1072       H  0.74723289  0.06982236  0.00673183     0.12800
H1073       H  0.73750457  0.91456853  0.98527577     0.12800
C1074       C  0.65444124  0.91316103  0.97335618     0.62300
F1075       F  0.80776617  0.09244455  0.03982456    -0.22800
F1076       F  0.86058574  0.09530456  0.01047947    -0.20100
F1077       F  0.83793265  0.04321548  0.04403249    -0.19800
F1078       F  0.64897844  0.92220582  0.94777477    -0.19900
F1079       F  0.61522042  0.90690896  0.98753771    -0.20200
F1080       F  0.65532880  0.87043350  0.97459868    -0.22900
C1081       C  0.28823507  0.02096503  0.04046998    -0.05700
C1082       C  0.28707601  0.98885931  0.02147856     0.00200
C1083       C  0.24797358  0.96811598  0.00377908    -0.08400
C1084       C  0.21328014  0.98244786  0.00502723    -0.05700
C1085       C  0.21636596  0.01647656  0.02297923     0.00200
C1086       C  0.25365441  0.03555492  0.04136400    -0.08300
C1087       C  0.25638245  0.07057564  0.06192126     0.62100
H1088       H  0.31747586  0.03605090  0.05421839     0.12800
H1089       H  0.18316217  0.96726923  0.99174729     0.12800
C1090       C  0.24226941  0.93149275  0.98341539     0.62300
F1091       F  0.29459139  0.08344414  0.07863507    -0.22800
F1092       F  0.21460583  0.04984343  0.07642769    -0.20100
F1093       F  0.26204088  0.11195861  0.05019523    -0.19800
F1094       F  0.25101701  0.89695605  0.99414125    -0.19900
F1095       F  0.27386474  0.95451907  0.96325670    -0.20200
F1096       F  0.19627099  0.90794979  0.97323381    -0.22900
C1097       C  0.29071003  0.93370628  0.90120919    -0.05700
C1098       C  0.31386562  0.90630131  0.90368217     0.00200
C1099       C  0.29340092  0.86157287  0.89024799    -0.08400
C1100       C  0.25125412  0.84669545  0.87511358    -0.05700
C1101       C  0.22796005  0.87402911  0.87321871     0.00200
C1102       C  0.24807245  0.91829350  0.88697640    -0.08300
C1103       C  0.22628013  0.95100806  0.88807925     0.62100
H1104       H  0.30557272  0.96787919  0.91115810     0.12800
H1105       H  0.23669726  0.81383644  0.86401538     0.12800
C1106       C  0.31547053  0.82935501  0.89171670     0.62300
F1107       F  0.22131026  0.96030299  0.91368857    -0.22800
F1108       F  0.18148886  0.93170183  0.87678066    -0.20100
F1109       F  0.25683074  0.99408906  0.87587603    -0.19800
F1110       F  0.31741896  0.81708011  0.91720311    -0.19900
F1111       F  0.36126010  0.85321511  0.88139775    -0.20200
F1112       F  0.28912211  0.78715161  0.87796227    -0.22900
C1113       C  0.56141001  0.84372365  0.91216938    -0.05700
C1114       C  0.53153318  0.86149893  0.90336365     0.00200
C1115       C  0.52614315  0.86498253  0.87635078    -0.08400
C1116       C  0.55172680  0.85179591  0.85924780    -0.05700
C1117       C  0.58225389  0.83490561  0.86800563     0.00200
C1118       C  0.58773878  0.83127050  0.89503502    -0.08300
C1119       C  0.62232247  0.81711053  0.90697599     0.62100
H1120       H  0.56630246  0.84203484  0.93283668     0.12800
H1121       H  0.54858454  0.85512036  0.83856376     0.12800
C1122       C  0.49497832  0.88427123  0.86552703     0.62300
F1123       F  0.65242700  0.85220127  0.92400927    -0.22800
F1124       F  0.65141594  0.81194839  0.88918389    -0.20100
F1125       F  0.59647055  0.77430997  0.92040268    -0.19800
F1126       F  0.51044406  0.93013425  0.87478971    -0.19900
F1127       F  0.44784815  0.85424915  0.87287885    -0.20200
F1128       F  0.49645599  0.88664065  0.83875858    -0.22900
C1129       C  0.84915865  0.59745670  0.10506606    -0.05700
C1130       C  0.84633782  0.58797861  0.13176554     0.00200
C1131       C  0.85466711  0.55048535  0.14058849    -0.08400
C1132       C  0.86938620  0.52714673  0.12264674    -0.05700
C1133       C  0.87316879  0.53771674  0.09610249     0.00200
C1134       C  0.86024867  0.57160515  0.08701080    -0.08300
C1135       C  0.85699554  0.57972793  0.05823721     0.62100
H1136       H  0.84443048  0.62674285  0.09831657     0.12800
H1137       H  0.87910941  0.50113006  0.12956632     0.12800
C1138       C  0.84927485  0.53386953  0.16855282     0.62300
F1139       F  0.83556430  0.60740008  0.05370552    -0.22800
F1140       F  0.82952501  0.53587322  0.04617117    -0.20100
F1141       F  0.90213477  0.60301196  0.04717640    -0.19800
F1142       F  0.82546826  0.55078833  0.18368269    -0.19900
F1143       F  0.89425146  0.54905308  0.17897218    -0.20200
F1144       F  0.82314721  0.48412199  0.16952365    -0.22900
C1145       C  0.76606967  0.63267466  0.10534620    -0.05700
C1146       C  0.75973391  0.60328518  0.12681225     0.00200
C1147       C  0.71702519  0.55817001  0.12873702    -0.08400
C1148       C  0.68122574  0.54508212  0.10956900    -0.05700
C1149       C  0.68705491  0.57484320  0.08811009     0.00200
C1150       C  0.73187244  0.61866421  0.08533297    -0.08300
C1151       C  0.74513112  0.65070238  0.06138249     0.62100
H1152       H  0.79864417  0.66734871  0.10447374     0.12800
H1153       H  0.64795547  0.51130185  0.11143099     0.12800
C1154       C  0.70895284  0.52418597  0.15105778     0.62300
F1155       F  0.79271472  0.68699850  0.06172434    -0.22800
F1156       F  0.71709279  0.67229480  0.05995371    -0.20100
F1157       F  0.73879679  0.62365694  0.03939463    -0.19800
F1158       F  0.70903076  0.54580084  0.17406918    -0.19900
F1159       F  0.74503627  0.51264025  0.15144015    -0.20200
F1160       F  0.66550555  0.48178241  0.14908518    -0.22900
C1161       C  0.59574253  0.01791429  0.30810579    -0.05700
C1162       C  0.63522309  0.01280009  0.31464993     0.00200
C1163       C  0.67695605  0.05174541  0.32540752    -0.08400
C1164       C  0.67795964  0.09537430  0.32922206    -0.05700
C1165       C  0.63879663  0.10100542  0.32258458     0.00200
C1166       C  0.59689761  0.06197996  0.31159455    -0.08300
C1167       C  0.55456500  0.06717759  0.30253867     0.62100
H1168       H  0.56428868  0.98724847  0.30005219     0.12800
H1169       H  0.70958619  0.12572296  0.33737495     0.12800
C1170       C  0.72009783  0.04698234  0.33307040     0.62300
F1171       F  0.52088008  0.02677041  0.28942949    -0.22800
F1172       F  0.57039450  0.10611505  0.28590220    -0.20100
F1173       F  0.53192421  0.07380691  0.32357177    -0.19800
F1174       F  0.73788514  0.03535039  0.31160952    -0.19900
F1175       F  0.70652960  0.01133003  0.35160446    -0.20200
F1176       F  0.75680674  0.08921618  0.34329251    -0.22900
C1177       C  0.69455429  0.62837033  0.32915848    -0.05700
C1178       C  0.72390877  0.65664832  0.34949575     0.00200
C1179       C  0.75025471  0.64089697  0.36441645    -0.08400
C1180       C  0.74485840  0.59556033  0.35899006    -0.05700
C1181       C  0.71369040  0.56631269  0.33942161     0.00200
C1182       C  0.68871202  0.58290403  0.32391483    -0.08300
C1183       C  0.65654396  0.55281191  0.30193052     0.62100
H1184       H  0.67526399  0.64180717  0.31780014     0.12800
H1185       H  0.76408174  0.58207618  0.37035517     0.12800
C1186       C  0.78417924  0.67225434  0.38548281     0.62300
F1187       F  0.63960451  0.57781541  0.28754462    -0.22800
F1188       F  0.61749904  0.51187504  0.31177887    -0.20100
F1189       F  0.68197509  0.53955073  0.28554105    -0.19800
F1190       F  0.75870650  0.68045430  0.40440853    -0.19900
F1191       F  0.81815384  0.71582411  0.37497018    -0.20200
F1192       F  0.80797949  0.65098749  0.39702832    -0.22900
C1193       C  0.51502617  0.91091991  0.45711592    -0.05700
C1194       C  0.53858429  0.96156652  0.45705319     0.00200
C1195       C  0.58112639  0.98738119  0.44211225    -0.08400
C1196       C  0.59846642  0.96161838  0.42827192    -0.05700
C1197       C  0.57362430  0.91104101  0.42693068     0.00200
C1198       C  0.53126855  0.88500072  0.44201657    -0.08300
C1199       C  0.50288303  0.83044007  0.44208561     0.62100
H1200       H  0.48373269  0.89169679  0.46934293     0.12800
H1201       H  0.63135496  0.98188692  0.41725950     0.12800
C1202       C  0.60925805  0.04187771  0.43905212     0.62300
F1203       F  0.46217078  0.81276940  0.45740967    -0.22800
F1204       F  0.53112456  0.81251082  0.45168486    -0.20100
F1205       F  0.48840713  0.81379212  0.41719227    -0.19800
F1206       F  0.65244967  0.05985487  0.45205678    -0.19900
F1207       F  0.58507576  0.06441352  0.44809428    -0.20200
F1208       F  0.61871923  0.05364688  0.41307970    -0.22900
C1209       C  0.56623679  0.62213732  0.42221692    -0.05700
C1210       C  0.55564044  0.65872006  0.42822399     0.00200
C1211       C  0.52555272  0.65197256  0.44986831    -0.08400
C1212       C  0.50879722  0.60960638  0.46487657    -0.05700
C1213       C  0.52106680  0.57418096  0.45917194     0.00200
C1214       C  0.55106523  0.58102684  0.43762961    -0.08300
C1215       C  0.57073804  0.54821652  0.43037860     0.62100
H1216       H  0.58881810  0.62647423  0.40566909     0.12800
H1217       H  0.48807835  0.60501732  0.48223455     0.12800
C1218       C  0.51294309  0.68981426  0.45805637     0.62300
F1219       F  0.55753575  0.53261555  0.40525128    -0.22800
F1220       F  0.55487169  0.50837119  0.44613345    -0.20100
F1221       F  0.62035637  0.57393424  0.43169670    -0.19800
F1222       F  0.48727943  0.69668648  0.43861613    -0.19900
F1223       F  0.55452490  0.73266635  0.46310782    -0.20200
F1224       F  0.48499803  0.67644094  0.48023037    -0.22900
C1225       C  0.75235969  0.70607821  0.23468054    -0.05700
C1226       C  0.78091982  0.75586085  0.23847657     0.00200
C1227       C  0.82579828  0.78089436  0.22545876    -0.08400
C1228       C  0.83909245  0.75519894  0.20822586    -0.05700
C1229       C  0.81081830  0.70503692  0.20515794     0.00200
C1230       C  0.76747714  0.67991729  0.21955397    -0.08300
C1231       C  0.73656081  0.62540426  0.22066663     0.62100
H1232       H  0.71834770  0.68659600  0.24482541     0.12800
H1233       H  0.87167411  0.77423339  0.19694726     0.12800
C1234       C  0.86028604  0.83377288  0.23042793     0.62300
F1235       F  0.72338430  0.61081435  0.24603031    -0.22800
F1236       F  0.76017464  0.60205533  0.21188904    -0.20100
F1237       F  0.69544738  0.61116394  0.20617872    -0.19800
F1238       F  0.86971384  0.84115021  0.25665638    -0.19900
F1239       F  0.84038606  0.86093655  0.22186520    -0.20200
F1240       F  0.90361466  0.84975286  0.21773483    -0.22900
C1241       C  0.37187765  0.09275065  0.35743096    -0.05700
C1242       C  0.35880336  0.05581633  0.33942764     0.00200
C1243       C  0.39092683  0.06102469  0.31920353    -0.08400
C1244       C  0.43370158  0.10487919  0.31645407    -0.05700
C1245       C  0.44636018  0.14235062  0.33397724     0.00200
C1246       C  0.41599808  0.13591436  0.35542801    -0.08300
C1247       C  0.43138590  0.17280108  0.37698863     0.62100
H1248       H  0.34761628  0.08706512  0.37332388     0.12800
H1249       H  0.45836085  0.10993842  0.30087010     0.12800
C1250       C  0.38158821  0.01959674  0.30149479     0.62300
F1251       F  0.39924727  0.15639794  0.39744824    -0.22800
F1252       F  0.43422027  0.21460213  0.36777470    -0.20100
F1253       F  0.47578693  0.18285277  0.38642785    -0.19800
F1254       F  0.34263388  0.00855238  0.28595457    -0.19900
F1255       F  0.37257038  0.97972084  0.31611924    -0.20200
F1256       F  0.42040684  0.03061168  0.28556546    -0.22900
C1257       C  0.91281182  0.56875522  0.33728807    -0.05700
C1258       C  0.90822653  0.52386605  0.33144272     0.00200
C1259       C  0.94838435  0.52208418  0.32069416    -0.08400
C1260       C  0.99055810  0.56574541  0.31528877    -0.05700
C1261       C  0.99332083  0.60994819  0.31984919     0.00200
C1262       C  0.95458462  0.61190475  0.33150041    -0.08300
C1263       C  0.95753085  0.65957316  0.33786966     0.62100
H1264       H  0.88270943  0.56998292  0.34589651     0.12800
H1265       H  0.02164553  0.56592323  0.30702897     0.12800
C1266       C  0.94727298  0.47519860  0.31419895     0.62300
F1267       F  0.91586749  0.65333533  0.34939163    -0.22800
F1268       F  0.96501020  0.68611104  0.31545399    -0.20100
F1269       F  0.99510092  0.68513565  0.35479052    -0.19800
F1270       F  0.91238150  0.45011666  0.29578363    -0.19900
F1271       F  0.93793476  0.44746949  0.33632395    -0.20200
F1272       F  0.99063953  0.48300132  0.30425985    -0.22900
C1273       C  0.05263118  0.61361329  0.41913689    -0.05700
C1274       C  0.09849432  0.65246073  0.42551602     0.00200
C1275       C  0.12089518  0.64825363  0.44844715    -0.08400
C1276       C  0.09593827  0.60634524  0.46407605    -0.05700
C1277       C  0.05024618  0.56819602  0.45739486     0.00200
C1278       C  0.02835254  0.57188123  0.43442062    -0.08300
C1279       C  0.98003308  0.53134513  0.42537364     0.62100
H1280       H  0.03548712  0.61539396  0.40147376     0.12800
H1281       H  0.11159401  0.60324073  0.48204704     0.12800
C1282       C  0.17033203  0.68751219  0.45676984     0.62300
F1283       F  0.96218594  0.54491100  0.40453886    -0.22800
F1284       F  0.94642482  0.51664388  0.44498520    -0.20100
F1285       F  0.98538548  0.49313362  0.41768844    -0.19800
F1286       F  0.17019216  0.73029791  0.45989071    -0.19900
F1287       F  0.20393804  0.69329046  0.43828459    -0.20200
F1288       F  0.18428619  0.67660671  0.48002303    -0.22900
C1289       C  0.39240476  0.93425382  0.41386037    -0.05700
C1290       C  0.35381170  0.89055588  0.42303272     0.00200
C1291       C  0.35823393  0.87331964  0.44769876    -0.08400
C1292       C  0.39988399  0.90185611  0.46261424    -0.05700
C1293       C  0.43683044  0.94677584  0.45389008     0.00200
C1294       C  0.43321270  0.96315249  0.42896868    -0.08300
C1295       C  0.47145140  0.01154879  0.41847826     0.62100
H1296       H  0.38959867  0.94676188  0.39478979     0.12800
H1297       H  0.40301602  0.89043610  0.48192464     0.12800
C1298       C  0.31854008  0.82653950  0.45893188     0.62300
F1299       F  0.45771508  0.02320236  0.39536887    -0.22800
F1300       F  0.51298212  0.01004893  0.41395442    -0.20100
F1301       F  0.48063287  0.04766888  0.43597740    -0.19800
F1302       F  0.31134709  0.78859694  0.44330202    -0.19900
F1303       F  0.27649204  0.82841810  0.46061146    -0.20200
F1304       F  0.32968474  0.81771772  0.48351055    -0.22900
C1305       C  0.94702758  0.75332714  0.19326842    -0.05700
C1306       C  0.90900066  0.71029926  0.20340963     0.00200
C1307       C  0.91287794  0.69694123  0.22910533    -0.08400
C1308       C  0.95432026  0.72710316  0.24361139    -0.05700
C1309       C  0.99323885  0.76943628  0.23336876     0.00200
C1310       C  0.98916469  0.78316287  0.20771406    -0.08300
C1311       C  0.02962085  0.82784111  0.19519995     0.62100
H1312       H  0.94374355  0.76285086  0.17354145     0.12800
H1313       H  0.95719734  0.71689916  0.26324594     0.12800
C1314       C  0.87423620  0.65047109  0.24119371     0.62300
F1315       F  0.01931814  0.83320717  0.16978583    -0.22800
F1316       F  0.07127487  0.82505620  0.19528888    -0.20100
F1317       F  0.03713326  0.86814091  0.20873362    -0.19800
F1318       F  0.86419145  0.61206694  0.22527864    -0.19900
F1319       F  0.83322054  0.65325144  0.24490739    -0.20200
F1320       F  0.88803800  0.64153304  0.26503892    -0.22900
C1321       C  0.88970345  0.31575516  0.11310560    -0.05700
C1322       C  0.89498526  0.30647475  0.08709135     0.00200
C1323       C  0.88156206  0.25836141  0.07997921    -0.08400
C1324       C  0.86799439  0.22299533  0.09943509    -0.05700
C1325       C  0.86548324  0.23298993  0.12552558     0.00200
C1326       C  0.87478238  0.27975425  0.13245952    -0.08300
C1327       C  0.86868585  0.29172843  0.16012309     0.62100
H1328       H  0.89873379  0.35196906  0.11837149     0.12800
H1329       H  0.86025843  0.18715778  0.09439502     0.12800
C1330       C  0.87981309  0.24324448  0.05196154     0.62300
F1331       F  0.90503000  0.29413556  0.17551184    -0.22800
F1332       F  0.82484558  0.25681611  0.16980358    -0.20100
F1333       F  0.87011706  0.33556903  0.16161231    -0.19800
F1334       F  0.92582730  0.26107298  0.04240138    -0.19900
F1335       F  0.85535030  0.26021689  0.03721474    -0.20200
F1336       F  0.85611407  0.19369434  0.04940507    -0.22900
C1337       C  0.74404409  0.15699143  0.12528919    -0.05700
C1338       C  0.77217568  0.13462058  0.12633326     0.00200
C1339       C  0.76007473  0.09478031  0.10989572    -0.08400
C1340       C  0.71960946  0.07806524  0.09363587    -0.05700
C1341       C  0.69030832  0.09938052  0.09275124     0.00200
C1342       C  0.70342322  0.14038138  0.10876631    -0.08300
C1343       C  0.67547103  0.16716563  0.10846494     0.62100
H1344       H  0.75372960  0.18720973  0.13801093     0.12800
H1345       H  0.71027008  0.04718936  0.08151649     0.12800
C1346       C  0.78978149  0.06962208  0.10929152     0.62300
F1347       F  0.69623611  0.20735816  0.12420498    -0.22800
F1348       F  0.62921209  0.13727824  0.11728442    -0.20100
F1349       F  0.67410831  0.18252388  0.08357813    -0.19800
F1350       F  0.78319766  0.04381573  0.13185551    -0.19900
F1351       F  0.83797081  0.10301798  0.10653538    -0.20200
F1352       F  0.77682727  0.03767670  0.08890098    -0.22900
C1353       C  0.84475923  0.05392551  0.19924494    -0.05700
C1354       C  0.83062791  0.08828233  0.20376570     0.00200
C1355       C  0.80216824  0.08328205  0.22572069    -0.08400
C1356       C  0.78717363  0.04282131  0.24166983    -0.05700
C1357       C  0.79851988  0.00641313  0.23647141     0.00200
C1358       C  0.82950557  0.01299522  0.21526161    -0.08300
C1359       C  0.84550466  0.97689035  0.20887026     0.62100
H1360       H  0.86630703  0.05844761  0.18227013     0.12800
H1361       H  0.76491391  0.03925937  0.25823558     0.12800
C1362       C  0.78562558  0.11858048  0.23331437     0.62300
F1363       F  0.87516737  0.99062168  0.18735941    -0.22800
F1364       F  0.80590366  0.93249399  0.20373885    -0.20100
F1365       F  0.87090942  0.97300149  0.22948892    -0.19800
F1366       F  0.73595869  0.09505463  0.23337609    -0.19900
F1367       F  0.80207112  0.15795557  0.21703313    -0.20200
F1368       F  0.80183406  0.13533337  0.25801763    -0.22900
C1369       C  0.48299015  0.33146846  0.11463011    -0.05700
C1370       C  0.45614644  0.32865409  0.09251590     0.00200
C1371       C  0.41183804  0.28549684  0.08824283    -0.08400
C1372       C  0.39397077  0.24954801  0.10740193    -0.05700
C1373       C  0.42016287  0.25254934  0.12966719     0.00200
C1374       C  0.46585338  0.29424251  0.13333520    -0.08300
C1375       C  0.49732432  0.30270480  0.15682658     0.62100
H1376       H  0.51692490  0.36404066  0.11797964     0.12800
H1377       H  0.35821671  0.21879631  0.10535483     0.12800
C1378       C  0.38269565  0.27655276  0.06369859     0.62300
F1379       F  0.50367504  0.34322244  0.16970481    -0.22800
F1380       F  0.54167261  0.31018915  0.14886946    -0.20100
F1381       F  0.47830387  0.26475365  0.17401583    -0.19800
F1382       F  0.41280851  0.29141696  0.04239072    -0.19900
F1383       F  0.35755441  0.30113912  0.06478457    -0.20200
F1384       F  0.34981364  0.22815394  0.06050137    -0.22900
C1385       C  0.41308321  0.15879775  0.10528436    -0.05700
C1386       C  0.42254467  0.15889699  0.13178638     0.00200
C1387       C  0.45863685  0.14811394  0.13981618    -0.08400
C1388       C  0.48245242  0.13606494  0.12084286    -0.05700
C1389       C  0.47224900  0.13570896  0.09440549     0.00200
C1390       C  0.43935614  0.15046490  0.08644604    -0.08300
C1391       C  0.43102698  0.15842607  0.05837913     0.62100
H1392       H  0.38441666  0.16483690  0.09902968     0.12800
H1393       H  0.50683143  0.12357499  0.12672070     0.12800
C1394       C  0.46962073  0.14488557  0.16813390     0.62300
F1395       F  0.43428585  0.20297766  0.05588380    -0.22800
F1396       F  0.38566342  0.12342059  0.05087818    -0.20100
F1397       F  0.46447555  0.15777717  0.04180537    -0.19800
F1398       F  0.43523808  0.10126025  0.17831668    -0.19900
F1399       F  0.47029623  0.18165073  0.18224982    -0.20200
F1400       F  0.51407990  0.14821656  0.17100839    -0.22900
C1401       C  0.26185055  0.06197691  0.19428195    -0.05700
C1402       C  0.30387997  0.10161977  0.20414665     0.00200
C1403       C  0.31924871  0.09818561  0.22933840    -0.08400
C1404       C  0.29161563  0.05591597  0.24379556    -0.05700
C1405       C  0.25032091  0.01521395  0.23388581     0.00200
C1406       C  0.23473961  0.01873781  0.20864734    -0.08300
C1407       C  0.19081884  0.97696653  0.19657298     0.62100
H1408       H  0.25119018  0.06480050  0.17475661     0.12800
H1409       H  0.30285300  0.05457391  0.26336397     0.12800
C1410       C  0.36524976  0.13830728  0.24101214     0.62300
F1411       F  0.18373982  0.98691632  0.17137782    -0.22800
F1412       F  0.15040516  0.96712302  0.21075033    -0.20100
F1413       F  0.19622993  0.93674772  0.19619967    -0.19800
F1414       F  0.40324035  0.15186790  0.22412507    -0.19900
F1415       F  0.37712268  0.12444209  0.26402170    -0.20200
F1416       F  0.35951496  0.17729356  0.24620481    -0.22900
C1417       C  0.41588359  0.36650669  0.36688827    -0.05700
C1418       C  0.38268206  0.32582737  0.35276337     0.00200
C1419       C  0.39828439  0.29589331  0.34135126    -0.08400
C1420       C  0.44644350  0.30771917  0.34478060    -0.05700
C1421       C  0.47959164  0.34821269  0.35904460     0.00200
C1422       C  0.46425178  0.37872242  0.36994257    -0.08300
C1423       C  0.49834731  0.42389832  0.38464038     0.62100
H1424       H  0.40391296  0.38992544  0.37492325     0.12800
H1425       H  0.45899632  0.28568971  0.33562305     0.12800
C1426       C  0.36459861  0.25147044  0.32589356     0.62300
F1427       F  0.47492342  0.44643254  0.39497788    -0.22800
F1428       F  0.53356121  0.45622720  0.36810256    -0.20100
F1429       F  0.51941099  0.41239686  0.40473295    -0.19800
F1430       F  0.35297676  0.26498260  0.30275080    -0.19900
F1431       F  0.32315418  0.22331681  0.33994270    -0.20200
F1432       F  0.38524641  0.22355628  0.32018362    -0.22900
C1433       C  0.95108425  0.34277594  0.28175275    -0.05700
C1434       C  0.97106645  0.34695743  0.30663956     0.00200
C1435       C  0.94044433  0.33534874  0.32862848    -0.08400
C1436       C  0.89192235  0.32185866  0.32480782    -0.05700
C1437       C  0.87255342  0.31813034  0.30007997     0.00200
C1438       C  0.90217766  0.32840605  0.27814262    -0.08300
C1439       C  0.88171573  0.32379619  0.25118224     0.62100
H1440       H  0.97404054  0.35038420  0.26500808     0.12800
H1441       H  0.86848086  0.31475924  0.34130198     0.12800
C1442       C  0.95782790  0.33555021  0.35605651     0.62300
F1443       F  0.91557373  0.33266918  0.23220804    -0.22800
F1444       F  0.86555550  0.35626647  0.24804769    -0.20100
F1445       F  0.84368117  0.27763671  0.24776801    -0.19800
F1446       F  0.99200810  0.38185606  0.36285381    -0.19900
F1447       F  0.97722231  0.30551837  0.35769488    -0.20200
F1448       F  0.92089268  0.31939142  0.37394645    -0.22900
C1449       C  0.09346234  0.49076073  0.45586743    -0.05700
C1450       C  0.04310466  0.46822988  0.45674678     0.00200
C1451       C  0.01564373  0.42583900  0.44197445    -0.08400
C1452       C  0.03960900  0.40799412  0.42690782    -0.05700
C1453       C  0.09000940  0.43095250  0.42524159     0.00200
C1454       C  0.11763024  0.47282681  0.44052662    -0.08300
C1455       C  0.17211390  0.49834175  0.44113934     0.62100
H1456       H  0.11375911  0.52176545  0.46811222     0.12800
H1457       H  0.01804938  0.37547438  0.41588142     0.12800
C1458       C  0.96093676  0.39728146  0.44130580     0.62300
F1459       F  0.19133991  0.53805784  0.45722442    -0.22800
F1460       F  0.19035969  0.51400724  0.41655910    -0.20100
F1461       F  0.18685171  0.46713222  0.45030169    -0.19800
F1462       F  0.93931828  0.42059384  0.45272936    -0.19900
F1463       F  0.94528765  0.35370388  0.45377066    -0.20200
F1464       F  0.94553952  0.38847268  0.41586808    -0.22900
C1465       C  0.36650976  0.42706858  0.43034395    -0.05700
C1466       C  0.34404234  0.45519143  0.42773580     0.00200
C1467       C  0.36120310  0.49696796  0.44330369    -0.08400
C1468       C  0.40036066  0.50911155  0.46042621    -0.05700
C1469       C  0.42303692  0.48112057  0.46256286     0.00200
C1470       C  0.40498316  0.43866886  0.44740302    -0.08300
C1471       C  0.42467207  0.40413472  0.44944797     0.62100
H1472       H  0.35264877  0.39429938  0.41920032     0.12800
H1473       H  0.41257993  0.53995369  0.47291604     0.12800
C1474       C  0.33853515  0.52859715  0.44191279     0.62300
F1475       F  0.40994008  0.37220494  0.42897343    -0.22800
F1476       F  0.40848381  0.37726784  0.47190340    -0.20100
F1477       F  0.47418525  0.42905822  0.44946300    -0.19800
F1478       F  0.29186177  0.50329940  0.45097850    -0.19900
F1479       F  0.33848003  0.54273265  0.41658776    -0.20200
F1480       F  0.36324526  0.56965784  0.45674787    -0.22900
C1481       C  0.00883222  0.19126542  0.20918956    -0.05700
C1482       C  0.00379384  0.20100369  0.23516772     0.00200
C1483       C  0.95842750  0.19368738  0.24351885    -0.08400
C1484       C  0.92244358  0.18385753  0.22510869    -0.05700
C1485       C  0.92794201  0.17634252  0.19893361     0.00200
C1486       C  0.97116316  0.17794537  0.19097087    -0.08300
C1487       C  0.97740482  0.16525384  0.16350384     0.62100
H1488       H  0.04327124  0.19637802  0.20296005     0.12800
H1489       H  0.88933694  0.18184405  0.23137753     0.12800
C1490       C  0.94618624  0.19608477  0.27165479     0.62300
F1491       F  0.97683292  0.19785128  0.14615241    -0.22800
F1492       F  0.94056688  0.11968052  0.15755618    -0.20100
F1493       F  0.02042834  0.16561724  0.16041386    -0.19800
F1494       F  0.94563567  0.23840273  0.27581332    -0.19900
F1495       F  0.97819233  0.19350039  0.28861614    -0.20200
F1496       F  0.90115351  0.15767011  0.27724502    -0.22900
C1497       C  0.31326034  0.26505828  0.23242787    -0.05700
C1498       C  0.26302732  0.23890411  0.23505073     0.00200
C1499       C  0.23720318  0.19355924  0.22246481    -0.08400
C1500       C  0.26294473  0.17706433  0.20740604    -0.05700
C1501       C  0.31332088  0.20300554  0.20561756     0.00200
C1502       C  0.33896748  0.24709313  0.21926140    -0.08300
C1503       C  0.39349610  0.27657294  0.22119970     0.62100
H1504       H  0.33346945  0.29963585  0.24189245     0.12800
H1505       H  0.24378531  0.14410623  0.19646782     0.12800
C1506       C  0.18313274  0.16226671  0.22501387     0.62300
F1507       F  0.40665432  0.28985595  0.24668114    -0.22800
F1508       F  0.40998102  0.31778319  0.20631854    -0.20100
F1509       F  0.41610037  0.25166182  0.21338813    -0.19800
F1510       F  0.16084345  0.18582431  0.21444288    -0.19900
F1511       F  0.17068485  0.15225728  0.25083892    -0.20200
F1512       F  0.16607688  0.11884512  0.21227238    -0.22900
loop_ 
_geom_bond_atom_site_label_1 
_geom_bond_atom_site_label_2 
_geom_bond_distance 
_geom_bond_site_symmetry_2 
_ccdc_geom_bond_type 
O1           Mg3   2.169       .  S
O1           Mg9   2.143       .  S
O1           C36   1.234       .  S
C2           O15   1.231       .  S
C2           O39   1.265       .  A
C2           H41   1.081       .  S
Mg3          O32   2.168       .  S
Mg3          O47   2.321       .  S
Mg3          O43   2.252       .  S
Mg3          O14   2.294       .  S
O4          Mg46   2.170       .  S
O4          Mg29   2.182       .  S
O4           C25   1.239       .  S
O5           C36   1.270       .  A
O5          Mg29   2.305       .  S
C6            O8   1.282       .  A
C6           O20   1.269       .  A
C6         C1466   1.514       .  S
O7           C35   1.276       .  A
O7           Mg9   2.325       .  S
O8          Mg40   2.377       .  S
Mg9          O15   2.130       .  S
Mg9          O23   2.238       .  S
Mg9          O11   2.271       .  S
C10          O48   1.264       .  A
C10          O16   1.272       .  A
C10        C1418   1.489       .  S
O11          C18   1.271       .  A
H12          C25   1.081       .  S
C13          O27   1.235       .  S
C13          O28   1.272       .  A
C13          H38   1.082       .  S
O14          C37   1.267       .  A
O15         Mg29   2.179       .  S
O16         Mg46   2.316       .  S
C17          O30   1.272       .  A
C17          O22   1.281       .  A
C17        C1498   1.497       .  S
C18          O45   1.281       .  A
C18        C1482   1.497       .  S
Mg19         O26   2.132       .  S
Mg19         O27   2.137       .  S
Mg19         O20   2.274       .  S
Mg19         O21   2.310       .  S
Mg19         O48   2.222       .  S
O21          C25   1.274       .  A
O22         Mg29   2.355       .  S
O23          C42   1.265       .  A
O24          C44   1.282       .  A
O24         Mg40   2.357       .  S
O26         Mg40   2.147       .  S
O26          C37   1.233       .  S
O27         Mg46   2.156       .  S
O28         Mg40   2.320       .  S
Mg29         O45   2.352       .  S
O30         Mg46   2.226       .  S
H31          C36   1.082       .  S
O32         Mg40   2.194       .  S
O32          C35   1.239       .  S
H33          C35   1.081       .  S
H34          C37   1.081       .  S
O39         Mg46   2.285       .  S
C42          O47   1.274       .  A
C42        C1434   1.495   1_455  S
O43          C44   1.274       .  A
C44        C1453   1.505       .  S
C49        C1402   1.502       .  S
C49          C50   1.423       .  A
C49          C54   1.411       .  A
C50        C1501   1.492       .  S
C50          C51   1.408       .  A
C51          H56   1.085       .  S
C51          C52   1.399       .  A
C52        C1373   1.495       .  S
C52          C53   1.420       .  A
C53        C1386   1.494       .  S
C53          C54   1.411       .  A
C54          H55   1.083       .  S
C57        C1354   1.485       .  S
C57          C58   1.415       .  A
C57          C62   1.405       .  A
C58        C1485   1.505       .  S
C58          C59   1.411       .  A
C59          H64   1.083       .  S
C59          C60   1.417       .  A
C60        C1325   1.498       .  S
C60          C61   1.425       .  A
C61        C1338   1.505       .  S
C61          C62   1.405       .  A
C62          H63   1.085       .  S
O65         Mg67   2.166       .  S
O65         Mg73   2.139       .  S
O65         C100   1.232       .  S
C66          O79   1.236       .  S
C66         O103   1.269       .  A
C66         H105   1.081       .  S
Mg67         O96   2.144       .  S
Mg67        O111   2.267       .  S
Mg67        O107   2.209       .  S
Mg67         O78   2.282       .  S
O68        Mg110   2.131       .  S
O68         Mg93   2.154       .  S
O68          C89   1.241       .  S
O69         C100   1.267       .  A
O69         Mg93   2.302       .  S
C70          O72   1.285       .  A
C70          O84   1.275       .  A
C70        C1309   1.509   1_455  S
O71          C99   1.278       .  A
O71         Mg73   2.333       .  S
O72        Mg104   2.358       .  S
Mg73         O79   2.132       .  S
Mg73         O87   2.268       .  S
Mg73         O75   2.288       .  S
C74         O112   1.265       .  A
C74          O80   1.260       .  A
C74        C1261   1.461   1_455  S
O75          C82   1.276       .  A
H76          C89   1.081       .  S
C77          O91   1.232       .  S
C77          O92   1.267       .  A
C77         H102   1.080       .  S
O78         C101   1.268       .  A
O79         Mg93   2.191       .  S
O80        Mg110   2.256       .  S
C81          O94   1.268       .  A
C81          O86   1.283       .  A
C81        C1274   1.516       .  S
C82         O109   1.280       .  A
C82        C1290   1.503       .  S
Mg83         O90   2.133       .  S
Mg83         O91   2.136       .  S
Mg83         O84   2.288       .  S
Mg83         O85   2.331       .  S
Mg83        O112   2.266       .  S
O85          C89   1.278       .  A
O86         Mg93   2.390       .  S
O87         C106   1.266   1_565  A
O88         C108   1.285       .  A
O88        Mg104   2.407       .  S
O90        Mg104   2.192       .  S
O90         C101   1.235       .  S
O91        Mg110   2.170       .  S
O92        Mg104   2.302       .  S
Mg93        O109   2.323       .  S
O94        Mg110   2.222       .  S
H95         C100   1.081       .  S
O96        Mg104   2.182       .  S
O96          C99   1.241       .  S
H97          C99   1.081       .  S
H98         C101   1.081       .  S
O103       Mg110   2.286       .  S
C106        O111   1.264   1_545  A
C106       C1242   1.470       .  S
O107        C108   1.265       .  A
C108       C1405   1.514   1_565  S
O113       Mg115   2.159       .  S
O113       Mg121   2.136       .  S
O113        C148   1.233       .  S
C114        O127   1.236       .  S
C114        O151   1.269       .  A
C114        H153   1.081       .  S
Mg115       O144   2.125       .  S
Mg115       O159   2.251       .  S
Mg115       O155   2.232       .  S
Mg115       O126   2.289       .  S
O116       Mg158   2.126       .  S
O116       Mg141   2.144       .  S
O116        C137   1.240       .  S
O117        C148   1.268       .  A
O117       Mg141   2.302       .  S
C118        O120   1.276       .  A
C118        O132   1.274       .  A
C118       C1357   1.501   1_565  S
O119        C147   1.277       .  A
O119       Mg121   2.326       .  S
O120       Mg152   2.298       .  S
Mg121       O127   2.129       .  S
Mg121       O135   2.270       .  S
Mg121       O123   2.281       .  S
C122        O160   1.265       .  A
C122        O128   1.263       .  A
C122       C1162   1.460   1_565  S
O123        C130   1.275       .  A
H124        C137   1.081       .  S
C125        O139   1.233       .  S
C125        O140   1.267       .  A
C125        H150   1.081       .  S
O126        C149   1.269       .  A
O127       Mg141   2.185       .  S
O128       Mg158   2.267       .  S
C129        O142   1.270       .  A
C129        O134   1.281       .  A
C129       C1197   1.501       .  S
C130        O157   1.276       .  A
C130       C1210   1.499       .  S
Mg131       O138   2.127       .  S
Mg131       O139   2.138       .  S
Mg131       O132   2.282       .  S
Mg131       O133   2.325       .  S
Mg131       O160   2.253       .  S
O133        C137   1.277       .  A
O134       Mg141   2.369       .  S
O135        C154   1.266       .  A
O136        C156   1.280       .  A
O136       Mg152   2.359       .  S
O138       Mg152   2.186       .  S
O138        C149   1.237       .  S
O139       Mg158   2.160       .  S
O140       Mg152   2.296       .  S
Mg141       O157   2.300       .  S
O142       Mg158   2.228       .  S
H143        C148   1.081       .  S
O144       Mg152   2.139       .  S
O144        C147   1.241       .  S
H145        C147   1.081       .  S
H146        C149   1.081       .  S
O151       Mg158   2.288       .  S
C154        O159   1.261       .  A
C154       C1178   1.460       .  S
O155        C156   1.269       .  A
C156       C1226   1.495       .  S
C161       C1306   1.507       .  S
C161        C162   1.421       .  A
C161        C166   1.417       .  A
C162       C1229   1.497       .  S
C162        C163   1.410       .  A
C163        H168   1.085       .  S
C163        C164   1.405       .  A
C164       C1146   1.499       .  S
C164        C165   1.422       .  A
C165       C1130   1.506       .  S
C165        C166   1.420       .  A
C166        H167   1.084       .  S
O169       Mg171   2.177   1_544  S
O169       Mg177   2.157       .  S
O169        C204   1.233       .  S
C170        O183   1.234   1_565  S
C170        O207   1.267       .  A
C170        H209   1.081       .  S
Mg171       O200   2.161       .  S
Mg171       O215   2.262       .  S
Mg171       O211   2.271       .  S
Mg171       O182   2.284   1_565  S
O172       Mg214   2.137       .  S
O172       Mg197   2.135       .  S
O172        C193   1.241   1_554  S
O173        C204   1.269       .  A
O173       Mg197   2.308       .  S
C174        O176   1.280       .  A
C174        O188   1.273       .  A
C174       C1114   1.493       .  S
O175        C203   1.273       .  A
O175       Mg177   2.305   1_565  S
O176       Mg208   2.322       .  S
Mg177       O183   2.137       .  S
Mg177       O191   2.237   1_545  S
Mg177       O179   2.286       .  S
C178        O216   1.261   1_545  A
C178        O184   1.260       .  A
C178       C1066   1.473       .  S
O179        C186   1.274       .  A
H180        C193   1.080       .  S
C181        O195   1.235       .  S
C181        O196   1.272       .  A
C181        H206   1.081   1_556  S
O182        C205   1.265       .  A
O183       Mg197   2.173       .  S
O184       Mg214   2.235   1_556  S
C185        O198   1.274       .  A
C185        O190   1.281       .  A
C185       C1341   1.518       .  S
C186        O213   1.275       .  A
C186       C1389   1.478       .  S
Mg187       O194   2.135       .  S
Mg187       O195   2.146       .  S
Mg187       O188   2.297       .  S
Mg187       O189   2.331   1_565  S
Mg187       O216   2.245       .  S
O189        C193   1.278       .  A
O190       Mg197   2.370       .  S
O191        C210   1.268       .  A
O192        C212   1.286       .  A
O192       Mg208   2.397       .  S
O194       Mg208   2.165       .  S
O194        C205   1.232   1_565  S
O195       Mg214   2.197   1_566  S
O196       Mg208   2.323       .  S
Mg197       O213   2.289       .  S
O198       Mg214   2.276       .  S
H199        C204   1.082   1_556  S
O200       Mg208   2.154       .  S
O200        C203   1.239   1_556  S
H201        C203   1.081       .  S
H202        C205   1.081       .  S
O207       Mg214   2.289   1_565  S
C210        O215   1.267   1_554  A
C210       C1082   1.485       .  S
O211        C212   1.275       .  A
C212       C1098   1.520       .  S
O217       Mg219   2.172   1_556  S
O217       Mg225   2.132       .  S
O217        C252   1.236       .  S
C218        O231   1.234       .  S
C218        O255   1.269       .  A
C218        H257   1.081       .  S
Mg219       O248   2.153       .  S
Mg219       O263   2.286   1_554  S
Mg219       O259   2.254       .  S
Mg219       O230   2.281       .  S
O220       Mg262   2.150       .  S
O220       Mg245   2.161       .  S
O220        C241   1.240   1_556  S
O221        C252   1.273       .  A
O221       Mg245   2.324       .  S
C222        O224   1.280       .  A
C222        O236   1.273       .  A
C222       C1370   1.500       .  S
O223        C251   1.275       .  A
O223       Mg225   2.317       .  S
O224       Mg256   2.327       .  S
Mg225       O231   2.140       .  S
Mg225       O239   2.246       .  S
Mg225       O227   2.301       .  S
C226        O264   1.265       .  A
C226        O232   1.270       .  A
C226       C1005   1.464       .  S
O227        C234   1.273       .  A
H228        C241   1.081       .  S
C229        O243   1.234       .  S
C229        O244   1.268       .  A
C229        H254   1.081   1_554  S
O230        C253   1.266       .  A
O231       Mg245   2.150       .  S
O232       Mg262   2.291   1_554  S
C233        O246   1.269       .  A
C233        O238   1.279       .  A
C233       C1053   1.502       .  S
C234        O261   1.273       .  A
C234       C1034   1.484       .  S
Mg235       O242   2.124       .  S
Mg235       O243   2.142       .  S
Mg235       O236   2.293       .  S
Mg235       O237   2.319       .  S
Mg235       O264   2.236       .  S
O237        C241   1.276       .  A
O238       Mg245   2.345       .  S
O239        C258   1.265       .  A
O240        C260   1.283       .  A
O240       Mg256   2.356       .  S
O242       Mg256   2.177       .  S
O242        C253   1.234       .  S
O243       Mg262   2.160   1_554  S
O244       Mg256   2.299       .  S
Mg245       O261   2.296       .  S
O246       Mg262   2.257       .  S
H247        C252   1.081   1_554  S
O248       Mg256   2.159       .  S
O248        C251   1.239   1_554  S
H249        C251   1.081       .  S
H250        C253   1.081       .  S
O255       Mg262   2.299       .  S
C258        O263   1.270       .  A
C258       C1021   1.473       .  S
O259        C260   1.269       .  A
C260       C1149   1.508       .  S
O265       Mg267   2.175   1_456  S
O265       Mg273   2.137   1_455  S
O265        C300   1.235       .  S
C266        O279   1.233   1_655  S
C266        O303   1.267       .  A
C266        H305   1.081       .  S
Mg267       O296   2.150       .  S
Mg267       O311   2.295   1_554  S
Mg267       O307   2.256       .  S
Mg267       O278   2.285   1_655  S
O268       Mg310   2.167       .  S
O268       Mg293   2.178       .  S
O268        C289   1.239   1_556  S
O269        C300   1.271       .  A
O269       Mg293   2.312       .  S
C270        O272   1.281       .  A
C270        O284   1.269       .  A
C270       C1133   1.490       .  S
O271        C299   1.276       .  A
O271       Mg273   2.320       .  S
O272       Mg304   2.343       .  S
Mg273       O279   2.138   1_655  S
Mg273       O287   2.250       .  S
Mg273       O275   2.272   1_655  S
C274        O312   1.266       .  A
C274        O280   1.275       .  A
C274        C954   1.483       .  S
O275        C282   1.272       .  A
H276        C289   1.081       .  S
C277        O291   1.235       .  S
C277        O292   1.270       .  A
C277        H302   1.081   1_554  S
O278        C301   1.267       .  A
O279       Mg293   2.176       .  S
O280       Mg310   2.323   1_554  S
C281        O294   1.275       .  A
C281        O286   1.284       .  A
C281        C970   1.512       .  S
C282        O309   1.283       .  A
C282        C986   1.506       .  S
Mg283       O290   2.128   1_455  S
Mg283       O291   2.153   1_455  S
Mg283       O284   2.267   1_455  S
Mg283       O285   2.306       .  S
Mg283       O312   2.233       .  S
O285        C289   1.274       .  A
O286       Mg293   2.373       .  S
O287        C306   1.265       .  A
O288        C308   1.285       .  A
O288       Mg304   2.373       .  S
O290       Mg304   2.174       .  S
O290        C301   1.234   1_655  S
O291       Mg310   2.162   1_654  S
O292       Mg304   2.306       .  S
Mg293       O309   2.368       .  S
O294       Mg310   2.257       .  S
H295        C300   1.081   1_554  S
O296       Mg304   2.164       .  S
O296        C299   1.240   1_554  S
H297        C299   1.081       .  S
H298        C301   1.081       .  S
O303       Mg310   2.292   1_655  S
C306        O311   1.270       .  A
C306        C941   1.471       .  S
O307        C308   1.270       .  A
C308       C1322   1.503       .  S
O313       Mg315   2.180       .  S
O313       Mg321   2.144       .  S
O313        C348   1.233       .  S
C314        O327   1.235       .  S
C314        O351   1.267       .  A
C314        H353   1.081       .  S
Mg315       O344   2.137       .  S
Mg315       O359   2.260       .  S
Mg315       O355   2.266       .  S
Mg315       O326   2.283       .  S
O316       Mg358   2.134       .  S
O316       Mg341   2.137       .  S
O316        C337   1.241       .  S
O317        C348   1.269       .  A
O317       Mg341   2.311       .  S
C318        O320   1.276       .  A
C318        O332   1.271       .  A
C318        C922   1.497       .  S
O319        C347   1.274       .  A
O319       Mg321   2.309       .  S
O320       Mg352   2.306       .  S
Mg321       O327   2.127       .  S
Mg321       O335   2.236       .  S
Mg321       O323   2.281       .  S
C322        O360   1.262       .  A
C322        O328   1.258       .  A
C322        C842   1.456       .  S
O323        C330   1.275       .  A
H324        C337   1.081       .  S
C325        O339   1.234       .  S
C325        O340   1.267       .  A
C325        H350   1.078       .  S
O326        C349   1.267       .  A
O327       Mg341   2.179       .  S
O328       Mg358   2.241       .  S
C329        O342   1.263       .  A
C329        O334   1.285       .  A
C329        C890   1.510       .  S
C330        O357   1.277       .  A
C330        C874   1.506   1_545  S
Mg331       O338   2.118       .  S
Mg331       O339   2.140       .  S
Mg331       O332   2.258       .  S
Mg331       O333   2.331       .  S
Mg331       O360   2.254       .  S
O333        C337   1.278       .  A
O334       Mg341   2.391       .  S
O335        C354   1.265       .  A
O336        C356   1.279       .  A
O336       Mg352   2.350       .  S
O338       Mg352   2.184       .  S
O338        C349   1.234       .  S
O339       Mg358   2.162       .  S
O340       Mg352   2.295       .  S
Mg341       O357   2.308       .  S
O342       Mg358   2.217       .  S
H343        C348   1.081       .  S
O344       Mg352   2.136       .  S
O344        C347   1.239       .  S
H345        C347   1.081       .  S
H346        C349   1.081       .  S
O351       Mg358   2.283       .  S
C354        O359   1.267       .  A
C354        C861   1.466   1_545  S
O355        C356   1.274       .  A
C356        C909   1.511       .  S
C361        C989   1.503       .  S
C361        C362   1.421       .  A
C361        C366   1.416       .  A
C362       C1050   1.494       .  S
C362        C363   1.406       .  A
C363        H368   1.085       .  S
C363        C364   1.402       .  A
C364        C893   1.496       .  S
C364        C365   1.423       .  A
C365        C826   1.505       .  S
C365        C366   1.418       .  A
C366        H367   1.084       .  S
C369        C973   1.496       .  S
C369        C370   1.425       .  A
C369        C374   1.417       .  A
C370       C1101   1.511       .  S
C370        C371   1.408       .  A
C371        H376   1.085       .  S
C371        C372   1.411       .  A
C372        C877   1.490       .  S
C372        C373   1.419       .  A
C373        C810   1.509       .  S
C373        C374   1.411       .  A
C374        H375   1.084       .  S
O377       Mg379   2.169       .  S
O377       Mg385   2.142       .  S
O377        C412   1.232       .  S
C378        O391   1.237       .  S
C378        O415   1.270       .  A
C378        H417   1.081       .  S
Mg379       O408   2.139       .  S
Mg379       O423   2.255       .  S
Mg379       O419   2.227       .  S
Mg379       O390   2.283       .  S
O380       Mg422   2.126       .  S
O380       Mg405   2.174       .  S
O380        C401   1.242       .  S
O381        C412   1.267       .  A
O381       Mg405   2.302       .  S
C382        O384   1.281       .  A
C382        O396   1.278       .  A
C382        C781   1.500       .  S
O383        C411   1.276       .  A
O383       Mg385   2.322       .  S
O384       Mg416   2.307       .  S
Mg385       O391   2.134       .  S
Mg385       O399   2.254       .  S
Mg385       O387   2.294       .  S
C386        O424   1.268   1_565  A
C386        O392   1.258   1_565  A
C386        C730   1.479       .  S
O387        C394   1.273       .  A
H388        C401   1.081       .  S
C389        O403   1.231       .  S
C389        O404   1.266       .  A
C389        H414   1.082       .  S
O390        C413   1.268       .  A
O391       Mg405   2.185       .  S
O392       Mg422   2.257       .  S
C393        O406   1.260       .  A
C393        O398   1.284       .  A
C393        C765   1.498   1_545  S
C394        O421   1.283       .  A
C394        C829   1.497   1_655  S
Mg395       O402   2.128       .  S
Mg395       O403   2.125       .  S
Mg395       O396   2.324       .  S
Mg395       O397   2.348       .  S
Mg395       O424   2.284       .  S
O397        C401   1.281       .  A
O398       Mg405   2.394       .  S
O399        C418   1.265       .  A
O400        C420   1.280       .  A
O400       Mg416   2.366       .  S
O402       Mg416   2.186       .  S
O402        C413   1.236       .  S
O403       Mg422   2.157       .  S
O404       Mg416   2.299       .  S
Mg405       O421   2.343       .  S
O406       Mg422   2.192       .  S
H407        C412   1.080       .  S
O408       Mg416   2.158       .  S
O408        C411   1.240       .  S
H409        C411   1.081       .  S
H410        C413   1.081       .  S
O415       Mg422   2.292       .  S
C418        O423   1.263       .  A
C418        C746   1.461   1_655  S
O419        C420   1.268       .  A
C420        C794   1.511       .  S
O425       Mg427   2.166       .  S
O425       Mg433   2.125       .  S
O425        C460   1.237       .  S
C426        O439   1.231       .  S
C426        O463   1.265       .  A
C426        H465   1.082       .  S
Mg427       O456   2.168       .  S
Mg427       O471   2.312       .  S
Mg427       O467   2.248       .  S
Mg427       O438   2.288       .  S
O428       Mg470   2.184       .  S
O428       Mg453   2.187       .  S
O428        C449   1.238       .  S
O429        C460   1.275       .  A
O429       Mg453   2.334       .  S
C430        O432   1.283       .  A
C430        O444   1.272       .  A
C430        C813   1.518       .  S
O431        C459   1.277       .  A
O431       Mg433   2.322       .  S
O432       Mg464   2.375       .  S
Mg433       O439   2.129       .  S
Mg433       O447   2.213       .  S
Mg433       O435   2.268       .  S
C434        O472   1.266       .  A
C434        O440   1.276       .  A
C434        C650   1.482   1_655  S
O435        C442   1.265       .  A
H436        C449   1.081       .  S
C437        O451   1.234       .  S
C437        O452   1.270       .  A
C437        H462   1.081       .  S
O438        C461   1.265       .  A
O439       Mg453   2.143       .  S
O440       Mg470   2.312       .  S
C441        O454   1.272       .  A
C441        O446   1.286       .  A
C441        C714   1.505       .  S
C442        O469   1.281       .  A
C442        C698   1.512       .  S
Mg443       O450   2.139       .  S
Mg443       O451   2.155       .  S
Mg443       O444   2.266       .  S
Mg443       O445   2.311       .  S
Mg443       O472   2.249       .  S
O445        C449   1.274       .  A
O446       Mg453   2.365       .  S
O447        C466   1.260       .  A
O448        C468   1.286       .  A
O448       Mg464   2.379       .  S
O450       Mg464   2.184       .  S
O450        C461   1.232       .  S
O451       Mg470   2.172       .  S
O452       Mg464   2.305       .  S
Mg453       O469   2.391       .  S
O454       Mg470   2.261       .  S
H455        C460   1.082       .  S
O456       Mg464   2.183       .  S
O456        C459   1.241       .  S
H457        C459   1.081       .  S
H458        C461   1.081       .  S
O463       Mg470   2.289       .  S
C466        O471   1.271       .  A
C466        C666   1.472       .  S
O467        C468   1.273       .  A
C468        C685   1.504       .  S
C473       C1117   1.494       .  S
C473        C474   1.421       .  A
C473        C478   1.406       .  A
C474       C1037   1.504       .  S
C474        C475   1.413       .  A
C475        H480   1.085       .  S
C475        C476   1.408       .  A
C476        C682   1.498       .  S
C476        C477   1.420       .  A
C477        C762   1.494       .  S
C477        C478   1.408       .  A
C478        H479   1.085       .  S
C481       C1450   1.492       .  S
C481        C482   1.421       .  A
C481        C486   1.405   1_455  A
C482       C1277   1.498       .  S
C482        C483   1.412   1_455  A
C483        H488   1.084       .  S
C483        C484   1.411       .  A
C484        C717   1.497       .  S
C484        C485   1.419       .  A
C485        C797   1.488       .  S
C485        C486   1.402       .  A
C486        H487   1.085       .  S
C489       C1213   1.485       .  S
C489        C490   1.423       .  A
C489        C494   1.413       .  A
C490       C1469   1.512       .  S
C490        C491   1.407       .  A
C491        H496   1.083       .  S
C491        C492   1.409       .  A
C492        C925   1.484       .  S
C492        C493   1.415       .  A
C493        C701   1.504       .  S
C493        C494   1.407       .  A
C494        H495   1.085       .  S
C497       C1293   1.495       .  S
C497        C498   1.420       .  A
C497        C502   1.408   1_565  A
C498       C1194   1.496       .  S
C498        C499   1.412   1_565  A
C499        H504   1.084       .  S
C499        C500   1.408       .  A
C500        C778   1.492       .  S
C500        C501   1.415       .  A
C501        C906   1.492       .  S
C501        C502   1.407       .  A
C502        H503   1.085   1_545  S
O505       Mg507   2.124   1_655  S
O505       Mg513   2.161   1_554  S
O505        C540   1.237       .  S
C506        O519   1.233       .  S
C506        O543   1.266       .  A
C506        H545   1.082       .  S
Mg507       O536   2.149   1_554  S
Mg507       O551   2.304   1_554  S
Mg507       O547   2.243       .  S
Mg507       O518   2.305       .  S
O508       Mg550   2.159   1_554  S
O508       Mg533   2.123       .  S
O508        C529   1.234       .  S
O509        C540   1.271   1_565  A
O509       Mg533   2.298       .  S
C510        O512   1.271       .  A
C510        O524   1.262   1_545  A
C510       C1085   1.461       .  S
O511        C539   1.268       .  A
O511       Mg513   2.288   1_455  S
O512       Mg544   2.284       .  S
Mg513       O519   2.128   1_545  S
Mg513       O527   2.252       .  S
Mg513       O515   2.227       .  S
C514        O552   1.267       .  A
C514        O520   1.276   1_455  A
C514        C957   1.474       .  S
O515        C522   1.265   1_546  A
H516        C529   1.081       .  S
C517        O531   1.236   1_556  S
C517        O532   1.270   1_565  A
C517        H542   1.081       .  S
O518        C541   1.269       .  A
O519       Mg533   2.159   1_556  S
O520       Mg550   2.317   1_554  S
C521        O534   1.271       .  A
C521        O526   1.278       .  A
C521       C1018   1.493       .  S
C522        O549   1.272       .  A
C522       C1069   1.466       .  S
Mg523       O530   2.143   1_565  S
Mg523       O531   2.152       .  S
Mg523       O524   2.216       .  S
Mg523       O525   2.285   1_455  S
Mg523       O552   2.241       .  S
O525        C529   1.267       .  A
O526       Mg533   2.298   1_556  S
O527        C546   1.269       .  A
O528        C548   1.277       .  A
O528       Mg544   2.302       .  S
O530       Mg544   2.160       .  S
O530        C541   1.234       .  S
O531       Mg550   2.129   1_454  S
O532       Mg544   2.300   1_556  S
Mg533       O549   2.275       .  S
O534       Mg550   2.253       .  S
H535        C540   1.081       .  S
O536       Mg544   2.133   1_556  S
O536        C539   1.235       .  S
H537        C539   1.081       .  S
H538        C541   1.082       .  S
O543       Mg550   2.288       .  S
C546        O551   1.273   1_655  A
C546        C938   1.490       .  S
O547        C548   1.269       .  A
C548       C1002   1.475       .  S
O553       Mg555   2.137       .  S
O553       Mg561   2.140       .  S
O553        C588   1.231       .  S
C554        O567   1.239       .  S
C554        O591   1.274       .  A
C554        H593   1.081       .  S
Mg555       O584   2.123       .  S
Mg555       O599   2.250       .  S
Mg555       O595   2.228       .  S
Mg555       O566   2.314       .  S
O556       Mg598   2.130       .  S
O556       Mg581   2.127       .  S
O556        C577   1.236       .  S
O557        C588   1.265       .  A
O557       Mg581   2.298       .  S
C558        O560   1.266       .  A
C558        O572   1.276       .  A
C558       C1165   1.468       .  S
O559        C587   1.273       .  A
O559       Mg561   2.321       .  S
O560       Mg592   2.214       .  S
Mg561       O567   2.163       .  S
Mg561       O575   2.322       .  S
Mg561       O563   2.301       .  S
C562        O600   1.273       .  A
C562        O568   1.262       .  A
C562       C1437   1.475       .  S
O563        C570   1.275       .  A
H564        C577   1.082       .  S
C565        O579   1.231       .  S
C565        O580   1.264       .  A
C565        H590   1.081       .  S
O566        C589   1.274       .  A
O567       Mg581   2.172       .  S
O568       Mg598   2.265       .  S
C569        O582   1.259       .  A
C569        O574   1.272       .  A
C569       C1258   1.486       .  S
C570        O597   1.267       .  A
C570       C1181   1.462       .  S
Mg571       O578   2.163       .  S
Mg571       O579   2.135       .  S
Mg571       O572   2.296       .  S
Mg571       O573   2.315       .  S
Mg571       O600   2.325       .  S
O573        C577   1.272       .  A
O574       Mg581   2.282       .  S
O575        C594   1.271       .  A
O576        C596   1.270       .  A
O576       Mg592   2.284       .  S
O578       Mg592   2.177       .  S
O578        C589   1.238       .  S
O579       Mg598   2.120       .  S
O580       Mg592   2.288       .  S
Mg581       O597   2.227       .  S
O582       Mg598   2.211       .  S
H583        C588   1.082       .  S
O584       Mg592   2.129       .  S
O584        C587   1.236       .  S
H585        C587   1.081       .  S
H586        C589   1.081       .  S
O591       Mg598   2.311       .  S
C594        O599   1.261       .  A
C594       C1421   1.491       .  S
O595        C596   1.262       .  A
C596       C1245   1.470       .  S
O601       Mg603   2.127       .  S
O601       Mg609   2.130       .  S
O601        C636   1.235       .  S
C602        O615   1.236       .  S
C602        O639   1.273       .  A
C602        H641   1.081       .  S
Mg603       O632   2.138       .  S
Mg603       O647   2.268       .  S
Mg603       O643   2.202       .  S
Mg603       O614   2.298       .  S
O604       Mg646   2.126       .  S
O604       Mg629   2.118       .  S
O604        C625   1.233       .  S
O605        C636   1.269       .  A
O605       Mg629   2.299       .  S
C606        O608   1.266       .  A
C606        O620   1.276       .  A
C606        C845   1.470       .  S
O607        C635   1.272       .  A
O607       Mg609   2.318       .  S
O608       Mg640   2.214       .  S
Mg609       O615   2.159       .  S
Mg609       O623   2.317       .  S
Mg609       O611   2.295       .  S
C610        O648   1.274       .  A
C610        O616   1.267       .  A
C610        C669   1.489       .  S
O611        C618   1.273       .  A
H612        C625   1.082       .  S
C613        O627   1.232       .  S
C613        O628   1.266       .  A
C613        H638   1.081       .  S
O614        C637   1.270       .  A
O615       Mg629   2.156       .  S
O616       Mg646   2.233       .  S
C617        O630   1.267       .  A
C617        O622   1.269       .  A
C617        C733   1.492       .  S
C618        O645   1.263       .  A
C618        C858   1.451       .  S
Mg619       O626   2.152       .  S
Mg619       O627   2.183       .  S
Mg619       O620   2.287       .  S
Mg619       O621   2.284       .  S
Mg619       O648   2.298       .  S
O621        C625   1.265       .  A
O622       Mg629   2.294       .  S
O623        C642   1.273       .  A
O624        C644   1.273       .  A
O624       Mg640   2.302       .  S
O626       Mg640   2.167       .  S
O626        C637   1.237       .  S
O627       Mg646   2.128       .  S
O628       Mg640   2.290       .  S
Mg629       O645   2.201       .  S
O630       Mg646   2.254       .  S
H631        C636   1.080       .  S
O632       Mg640   2.124       .  S
O632        C635   1.235       .  S
H633        C635   1.082       .  S
H634        C637   1.081       .  S
O639       Mg646   2.317       .  S
C642        O647   1.262       .  A
C642        C653   1.481       .  S
O643        C644   1.261       .  A
C644        C749   1.475       .  S
C649        H656   1.083       .  S
C649        C650   1.404       .  A
C649        C654   1.406       .  A
C650        C651   1.415       .  A
C651        C652   1.412       .  A
C651        C658   1.516       .  S
C652        H657   1.083       .  S
C652        C653   1.407       .  A
C653        C654   1.416       .  A
C654        C655   1.520       .  S
C655        F659   1.385       .  S
C655        F660   1.383       .  S
C655        F661   1.383       .  S
C658        F662   1.383   1_455  S
C658        F663   1.382   1_455  S
C658        F664   1.385       .  S
C665        H672   1.084       .  S
C665        C666   1.405       .  A
C665        C670   1.407       .  A
C666        C667   1.407       .  A
C667        C668   1.405       .  A
C667        C674   1.517       .  S
C668        H673   1.083       .  S
C668        C669   1.414       .  A
C669        C670   1.420       .  A
C670        C671   1.520       .  S
C671        F675   1.385       .  S
C671        F676   1.383       .  S
C671        F677   1.384       .  S
C674        F678   1.383       .  S
C674        F679   1.382       .  S
C674        F680   1.385       .  S
C681        H688   1.082       .  S
C681        C682   1.409       .  A
C681        C686   1.414       .  A
C682        C683   1.417       .  A
C683        C684   1.412       .  A
C683        C690   1.520       .  S
C684        H689   1.083       .  S
C684        C685   1.412       .  A
C685        C686   1.419       .  A
C686        C687   1.517       .  S
C687        F691   1.384       .  S
C687        F692   1.382       .  S
C687        F693   1.384       .  S
C690        F694   1.379       .  S
C690        F695   1.383       .  S
C690        F696   1.385       .  S
C697        H704   1.084       .  S
C697        C698   1.412       .  A
C697        C702   1.406       .  A
C698        C699   1.420       .  A
C699        C700   1.422       .  A
C699        C706   1.515       .  S
C700        H705   1.080       .  S
C700        C701   1.413       .  A
C701        C702   1.420       .  A
C702        C703   1.524       .  S
C703        F707   1.383       .  S
C703        F708   1.380       .  S
C703        F709   1.383       .  S
C706        F710   1.383       .  S
C706        F711   1.383       .  S
C706        F712   1.385       .  S
C713        H720   1.083       .  S
C713        C714   1.407       .  A
C713        C718   1.413       .  A
C714        C715   1.431       .  A
C715        C716   1.410       .  A
C715        C722   1.523       .  S
C716        H721   1.080       .  S
C716        C717   1.399       .  A
C717        C718   1.419       .  A
C718        C719   1.517       .  S
C719        F723   1.385       .  S
C719        F724   1.382       .  S
C719        F725   1.380       .  S
C722        F726   1.384       .  S
C722        F727   1.383       .  S
C722        F728   1.385   1_655  S
C729        H736   1.082       .  S
C729        C730   1.399       .  A
C729        C734   1.403       .  A
C730        C731   1.417       .  A
C731        C732   1.409       .  A
C731        C738   1.520       .  S
C732        H737   1.083       .  S
C732        C733   1.409       .  A
C733        C734   1.425       .  A
C734        C735   1.521       .  S
C735        F739   1.384       .  S
C735        F740   1.383       .  S
C735        F741   1.383       .  S
C738        F742   1.382       .  S
C738        F743   1.384       .  S
C738        F744   1.383       .  S
C745        H752   1.083   1_455  S
C745        C746   1.393       .  A
C745        C750   1.403       .  A
C746        C747   1.416       .  A
C747        C748   1.402       .  A
C747        C754   1.519       .  S
C748        H753   1.083       .  S
C748        C749   1.401       .  A
C749        C750   1.426       .  A
C750        C751   1.521       .  S
C751        F755   1.384       .  S
C751        F756   1.383       .  S
C751        F757   1.384       .  S
C754        F758   1.381       .  S
C754        F759   1.382       .  S
C754        F760   1.384       .  S
C761        H768   1.084       .  S
C761        C762   1.400       .  A
C761        C766   1.402       .  A
C762        C763   1.421       .  A
C763        C764   1.417       .  A
C763        C770   1.515       .  S
C764        H769   1.084       .  S
C764        C765   1.408       .  A
C765        C766   1.428       .  A
C766        C767   1.525       .  S
C767        F771   1.385       .  S
C767        F772   1.384       .  S
C767        F773   1.384   1_565  S
C770        F774   1.383       .  S
C770        F775   1.381       .  S
C770        F776   1.384       .  S
C777        H784   1.084       .  S
C777        C778   1.400       .  A
C777        C782   1.410       .  A
C778        C779   1.420       .  A
C779        C780   1.410       .  A
C779        C786   1.517       .  S
C780        H785   1.084       .  S
C780        C781   1.407       .  A
C781        C782   1.426       .  A
C782        C783   1.517       .  S
C783        F787   1.385       .  S
C783        F788   1.384       .  S
C783        F789   1.381       .  S
C786        F790   1.384       .  S
C786        F791   1.381       .  S
C786        F792   1.383       .  S
C793        H800   1.084       .  S
C793        C794   1.414       .  A
C793        C798   1.402       .  A
C794        C795   1.426       .  A
C795        C796   1.419       .  A
C795        C802   1.518       .  S
C796        H801   1.082       .  S
C796        C797   1.406       .  A
C797        C798   1.415       .  A
C798        C799   1.523   1_655  S
C799        F803   1.384       .  S
C799        F804   1.381       .  S
C799        F805   1.383       .  S
C802        F806   1.383       .  S
C802        F807   1.384       .  S
C802        F808   1.385       .  S
C809        H816   1.083       .  S
C809        C810   1.410       .  A
C809        C814   1.424   1_455  A
C810        C811   1.416       .  A
C811        C812   1.409       .  A
C811        C818   1.518       .  S
C812        H817   1.082       .  S
C812        C813   1.413   1_455  A
C813        C814   1.424       .  A
C814        C815   1.515       .  S
C815        F819   1.385       .  S
C815        F820   1.383       .  S
C815        F821   1.383       .  S
C818        F822   1.382       .  S
C818        F823   1.375       .  S
C818        F824   1.385       .  S
C825        H832   1.079       .  S
C825        C826   1.403       .  A
C825        C830   1.408       .  A
C826        C827   1.427       .  A
C827        C828   1.416   1_455  A
C827        C834   1.519       .  S
C828        H833   1.084       .  S
C828        C829   1.404   1_655  A
C829        C830   1.421       .  A
C830        C831   1.519       .  S
C831        F835   1.385       .  S
C831        F836   1.381       .  S
C831        F837   1.384       .  S
C834        F838   1.380       .  S
C834        F839   1.384       .  S
C834        F840   1.383   1_455  S
C841        H848   1.083       .  S
C841        C842   1.394       .  A
C841        C846   1.402       .  A
C842        C843   1.414       .  A
C843        C844   1.398       .  A
C843        C850   1.518       .  S
C844        H849   1.083       .  S
C844        C845   1.400       .  A
C845        C846   1.425       .  A
C846        C847   1.521       .  S
C847        F851   1.384       .  S
C847        F852   1.384       .  S
C847        F853   1.383       .  S
C850        F854   1.381       .  S
C850        F855   1.381       .  S
C850        F856   1.385       .  S
C857        H864   1.084       .  S
C857        C858   1.399       .  A
C857        C862   1.401       .  A
C858        C859   1.406       .  A
C859        C860   1.398       .  A
C859        C866   1.519       .  S
C860        H865   1.084       .  S
C860        C861   1.407       .  A
C861        C862   1.415       .  A
C862        C863   1.518       .  S
C863        F867   1.385       .  S
C863        F868   1.382   1_565  S
C863        F869   1.384   1_565  S
C866        F870   1.383       .  S
C866        F871   1.383       .  S
C866        F872   1.385       .  S
C873        H880   1.084       .  S
C873        C874   1.411       .  A
C873        C878   1.399       .  A
C874        C875   1.424       .  A
C875        C876   1.417       .  A
C875        C882   1.518   1_565  S
C876        H881   1.082       .  S
C876        C877   1.407       .  A
C877        C878   1.419       .  A
C878        C879   1.526       .  S
C879        F883   1.384       .  S
C879        F884   1.380       .  S
C879        F885   1.383       .  S
C882        F886   1.383       .  S
C882        F887   1.383       .  S
C882        F888   1.385   1_545  S
C889        H896   1.082       .  S
C889        C890   1.411       .  A
C889        C894   1.417       .  A
C890        C891   1.436       .  A
C891        C892   1.407       .  A
C891        C898   1.527       .  S
C892        H897   1.083       .  S
C892        C893   1.396       .  A
C893        C894   1.417       .  A
C894        C895   1.515       .  S
C895        F899   1.381       .  S
C895        F900   1.383       .  S
C895        F901   1.384       .  S
C898        F902   1.384       .  S
C898        F903   1.383       .  S
C898        F904   1.385       .  S
C905        H912   1.082       .  S
C905        C906   1.403       .  A
C905        C910   1.416       .  A
C906        C907   1.417       .  A
C907        C908   1.405       .  A
C907        C914   1.522   1_545  S
C908        H913   1.084       .  S
C908        C909   1.412       .  A
C909        C910   1.429       .  A
C910        C911   1.519       .  S
C911        F915   1.385       .  S
C911        F916   1.383       .  S
C911        F917   1.382       .  S
C914        F918   1.381       .  S
C914        F919   1.383       .  S
C914        F920   1.384       .  S
C921        H928   1.081       .  S
C921        C922   1.412       .  A
C921        C926   1.402       .  A
C922        C923   1.421       .  A
C923        C924   1.411       .  A
C923        C930   1.516       .  S
C924        H929   1.083       .  S
C924        C925   1.404       .  A
C925        C926   1.411       .  A
C926        C927   1.519       .  S
C927        F931   1.385       .  S
C927        F932   1.382       .  S
C927        F933   1.379       .  S
C930        F934   1.382       .  S
C930        F935   1.383       .  S
C930        F936   1.385       .  S
C937        H944   1.082       .  S
C937        C938   1.412       .  A
C937        C942   1.407       .  A
C938        C939   1.422   1_655  A
C939        C940   1.405       .  A
C939        C946   1.521       .  S
C940        H945   1.084       .  S
C940        C941   1.402   1_455  A
C941        C942   1.408       .  A
C942        C943   1.517       .  S
C943        F947   1.384       .  S
C943        F948   1.383       .  S
C943        F949   1.381       .  S
C946        F950   1.384       .  S
C946        F951   1.382       .  S
C946        F952   1.384       .  S
C953        H960   1.083   1_455  S
C953        C954   1.409       .  A
C953        C958   1.404   1_455  A
C954        C955   1.414       .  A
C955        C956   1.408       .  A
C955        C962   1.517       .  S
C956        H961   1.084       .  S
C956        C957   1.407       .  A
C957        C958   1.412   1_455  A
C958        C959   1.518       .  S
C959        F963   1.384       .  S
C959        F964   1.382       .  S
C959        F965   1.382       .  S
C962        F966   1.382   1_554  S
C962        F967   1.384       .  S
C962        F968   1.384       .  S
C969        H976   1.081       .  S
C969        C970   1.414       .  A
C969        C974   1.408       .  A
C970        C971   1.426       .  A
C971        C972   1.418       .  A
C971        C978   1.519       .  S
C972        H977   1.083       .  S
C972        C973   1.406       .  A
C973        C974   1.413       .  A
C974        C975   1.518       .  S
C975        F979   1.385       .  S
C975        F980   1.383       .  S
C975        F981   1.377       .  S
C978        F982   1.384       .  S
C978        F983   1.383       .  S
C978        F984   1.385       .  S
C985        H992   1.085       .  S
C985        C986   1.409       .  A
C985        C990   1.409       .  A
C986        C987   1.420       .  A
C987        C988   1.421       .  A
C987        C994   1.516       .  S
C988        H993   1.083       .  S
C988        C989   1.412       .  A
C989        C990   1.419       .  A
C990        C991   1.519       .  S
C991        F995   1.383       .  S
C991        F996   1.378       .  S
C991        F997   1.383       .  S
C994        F998   1.383       .  S
C994        F999   1.383       .  S
C994       F1000   1.385       .  S
C1001      H1008   1.083       .  S
C1001      C1002   1.401       .  A
C1001      C1006   1.395       .  A
C1002      C1003   1.419       .  A
C1003      C1004   1.411       .  A
C1003      C1010   1.517       .  S
C1004      H1009   1.083       .  S
C1004      C1005   1.402       .  A
C1005      C1006   1.414       .  A
C1006      C1007   1.523   1_554  S
C1007      F1011   1.385       .  S
C1007      F1012   1.379   1_556  S
C1007      F1013   1.380       .  S
C1010      F1014   1.383       .  S
C1010      F1015   1.382       .  S
C1010      F1016   1.385       .  S
C1017      H1024   1.082       .  S
C1017      C1018   1.408       .  A
C1017      C1022   1.401       .  A
C1018      C1019   1.427       .  A
C1019      C1020   1.408       .  A
C1019      C1026   1.521       .  S
C1020      H1025   1.083       .  S
C1020      C1021   1.400       .  A
C1021      C1022   1.417       .  A
C1022      C1023   1.524       .  S
C1023      F1027   1.385       .  S
C1023      F1028   1.384       .  S
C1023      F1029   1.380       .  S
C1026      F1030   1.383   1_556  S
C1026      F1031   1.383       .  S
C1026      F1032   1.385       .  S
C1033      H1040   1.084       .  S
C1033      C1034   1.405       .  A
C1033      C1038   1.414       .  A
C1034      C1035   1.419       .  A
C1035      C1036   1.398       .  A
C1035      C1042   1.522       .  S
C1036      H1041   1.085       .  S
C1036      C1037   1.406       .  A
C1037      C1038   1.425       .  A
C1038      C1039   1.514       .  S
C1039      F1043   1.383       .  S
C1039      F1044   1.381       .  S
C1039      F1045   1.383       .  S
C1042      F1046   1.381       .  S
C1042      F1047   1.381       .  S
C1042      F1048   1.384       .  S
C1049      H1056   1.083       .  S
C1049      C1050   1.402       .  A
C1049      C1054   1.403       .  A
C1050      C1051   1.419       .  A
C1051      C1052   1.414       .  A
C1051      C1058   1.517       .  S
C1052      H1057   1.084       .  S
C1052      C1053   1.412       .  A
C1053      C1054   1.426       .  A
C1054      C1055   1.521       .  S
C1055      F1059   1.385       .  S
C1055      F1060   1.382       .  S
C1055      F1061   1.384       .  S
C1058      F1062   1.381       .  S
C1058      F1063   1.384       .  S
C1058      F1064   1.383       .  S
C1065      H1072   1.084       .  S
C1065      C1066   1.401   1_554  A
C1065      C1070   1.398       .  A
C1066      C1067   1.423   1_545  A
C1067      C1068   1.403       .  A
C1067      C1074   1.518       .  S
C1068      H1073   1.083       .  S
C1068      C1069   1.397   1_556  A
C1069      C1070   1.417   1_565  A
C1070      C1071   1.518       .  S
C1071      F1075   1.384       .  S
C1071      F1076   1.381       .  S
C1071      F1077   1.384       .  S
C1074      F1078   1.382       .  S
C1074      F1079   1.383       .  S
C1074      F1080   1.385       .  S
C1081      H1088   1.081       .  S
C1081      C1082   1.412   1_545  A
C1081      C1086   1.403       .  A
C1082      C1083   1.423       .  A
C1083      C1084   1.401       .  A
C1083      C1090   1.521   1_554  S
C1084      H1089   1.084   1_554  S
C1084      C1085   1.400   1_565  A
C1085      C1086   1.408       .  A
C1086      C1087   1.519       .  S
C1087      F1091   1.385       .  S
C1087      F1092   1.383       .  S
C1087      F1093   1.383       .  S
C1090      F1094   1.383       .  S
C1090      F1095   1.382       .  S
C1090      F1096   1.385       .  S
C1097      H1104   1.084       .  S
C1097      C1098   1.410       .  A
C1097      C1102   1.409       .  A
C1098      C1099   1.428       .  A
C1099      C1100   1.424       .  A
C1099      C1106   1.516       .  S
C1100      H1105   1.082       .  S
C1100      C1101   1.409       .  A
C1101      C1102   1.425       .  A
C1102      C1103   1.523       .  S
C1103      F1107   1.384       .  S
C1103      F1108   1.381       .  S
C1103      F1109   1.383       .  S
C1106      F1110   1.383       .  S
C1106      F1111   1.382       .  S
C1106      F1112   1.385       .  S
C1113      H1120   1.084       .  S
C1113      C1114   1.411       .  A
C1113      C1118   1.413       .  A
C1114      C1115   1.417       .  A
C1115      C1116   1.408       .  A
C1115      C1122   1.518       .  S
C1116      H1121   1.083       .  S
C1116      C1117   1.408       .  A
C1117      C1118   1.419       .  A
C1118      C1119   1.522       .  S
C1119      F1123   1.378       .  S
C1119      F1124   1.379       .  S
C1119      F1125   1.383       .  S
C1122      F1126   1.384       .  S
C1122      F1127   1.382       .  S
C1122      F1128   1.385       .  S
C1129      H1136   1.079       .  S
C1129      C1130   1.405       .  A
C1129      C1134   1.408       .  A
C1130      C1131   1.427       .  A
C1131      C1132   1.414       .  A
C1131      C1138   1.518       .  S
C1132      H1137   1.084       .  S
C1132      C1133   1.402       .  A
C1133      C1134   1.419       .  A
C1134      C1135   1.521       .  S
C1135      F1139   1.385       .  S
C1135      F1140   1.383       .  S
C1135      F1141   1.380       .  S
C1138      F1142   1.381       .  S
C1138      F1143   1.383       .  S
C1138      F1144   1.384       .  S
C1145      H1152   1.083       .  S
C1145      C1146   1.400       .  A
C1145      C1150   1.409       .  A
C1146      C1147   1.417       .  A
C1147      C1148   1.414       .  A
C1147      C1154   1.514       .  S
C1148      H1153   1.082       .  S
C1148      C1149   1.410       .  A
C1149      C1150   1.432       .  A
C1150      C1151   1.524       .  S
C1151      F1155   1.385       .  S
C1151      F1156   1.383       .  S
C1151      F1157   1.384       .  S
C1154      F1158   1.378       .  S
C1154      F1159   1.380       .  S
C1154      F1160   1.385       .  S
C1161      H1168   1.083   1_545  S
C1161      C1162   1.397       .  A
C1161      C1166   1.406       .  A
C1162      C1163   1.415       .  A
C1163      C1164   1.397       .  A
C1163      C1170   1.518       .  S
C1164      H1169   1.083       .  S
C1164      C1165   1.398       .  A
C1165      C1166   1.423       .  A
C1166      C1167   1.522       .  S
C1167      F1171   1.385       .  S
C1167      F1172   1.384       .  S
C1167      F1173   1.383       .  S
C1170      F1174   1.383       .  S
C1170      F1175   1.382       .  S
C1170      F1176   1.384       .  S
C1177      H1184   1.084       .  S
C1177      C1178   1.403       .  A
C1177      C1182   1.401       .  A
C1178      C1179   1.408       .  A
C1179      C1180   1.404       .  A
C1179      C1186   1.516       .  S
C1180      H1185   1.084       .  S
C1180      C1181   1.405       .  A
C1181      C1182   1.409       .  A
C1182      C1183   1.517       .  S
C1183      F1187   1.385       .  S
C1183      F1188   1.382       .  S
C1183      F1189   1.383       .  S
C1186      F1190   1.383       .  S
C1186      F1191   1.383       .  S
C1186      F1192   1.384       .  S
C1193      H1200   1.082       .  S
C1193      C1194   1.409       .  A
C1193      C1198   1.417       .  A
C1194      C1195   1.421       .  A
C1195      C1196   1.402       .  A
C1195      C1202   1.523   1_565  S
C1196      H1201   1.085       .  S
C1196      C1197   1.408       .  A
C1197      C1198   1.422       .  A
C1198      C1199   1.517       .  S
C1199      F1203   1.385       .  S
C1199      F1204   1.383       .  S
C1199      F1205   1.383       .  S
C1202      F1206   1.383       .  S
C1202      F1207   1.380       .  S
C1202      F1208   1.385       .  S
C1209      H1216   1.085       .  S
C1209      C1210   1.409       .  A
C1209      C1214   1.400       .  A
C1210      C1211   1.422       .  A
C1211      C1212   1.414       .  A
C1211      C1218   1.518       .  S
C1212      H1217   1.082       .  S
C1212      C1213   1.406       .  A
C1213      C1214   1.416       .  A
C1214      C1215   1.519       .  S
C1215      F1219   1.382       .  S
C1215      F1220   1.378       .  S
C1215      F1221   1.384       .  S
C1218      F1222   1.383       .  S
C1218      F1223   1.383       .  S
C1218      F1224   1.385       .  S
C1225      H1232   1.085       .  S
C1225      C1226   1.404       .  A
C1225      C1230   1.400       .  A
C1226      C1227   1.421       .  A
C1227      C1228   1.417       .  A
C1227      C1234   1.516       .  S
C1228      H1233   1.081       .  S
C1228      C1229   1.408       .  A
C1229      C1230   1.421       .  A
C1230      C1231   1.521       .  S
C1231      F1235   1.384       .  S
C1231      F1236   1.381       .  S
C1231      F1237   1.382       .  S
C1234      F1238   1.384       .  S
C1234      F1239   1.382       .  S
C1234      F1240   1.385       .  S
C1241      H1248   1.083       .  S
C1241      C1242   1.399       .  A
C1241      C1246   1.407       .  A
C1242      C1243   1.419       .  A
C1243      C1244   1.400       .  A
C1243      C1250   1.517       .  S
C1244      H1249   1.084       .  S
C1244      C1245   1.396       .  A
C1245      C1246   1.422       .  A
C1246      C1247   1.520       .  S
C1247      F1251   1.385       .  S
C1247      F1252   1.379       .  S
C1247      F1253   1.384       .  S
C1250      F1254   1.376       .  S
C1250      F1255   1.383   1_545  S
C1250      F1256   1.385       .  S
C1257      H1264   1.083       .  S
C1257      C1258   1.405       .  A
C1257      C1262   1.397       .  A
C1258      C1259   1.431       .  A
C1259      C1260   1.408       .  A
C1259      C1266   1.524       .  S
C1260      H1265   1.083   1_655  S
C1260      C1261   1.395       .  A
C1261      C1262   1.411       .  A
C1262      C1263   1.520       .  S
C1263      F1267   1.385       .  S
C1263      F1268   1.383       .  S
C1263      F1269   1.382       .  S
C1266      F1270   1.383       .  S
C1266      F1271   1.383       .  S
C1266      F1272   1.385       .  S
C1273      H1280   1.081       .  S
C1273      C1274   1.416       .  A
C1273      C1278   1.405       .  A
C1274      C1275   1.425       .  A
C1275      C1276   1.421       .  A
C1275      C1282   1.517       .  S
C1276      H1281   1.083       .  S
C1276      C1277   1.408       .  A
C1277      C1278   1.413       .  A
C1278      C1279   1.520   1_455  S
C1279      F1283   1.385       .  S
C1279      F1284   1.381       .  S
C1279      F1285   1.378       .  S
C1282      F1286   1.383       .  S
C1282      F1287   1.383       .  S
C1282      F1288   1.385       .  S
C1289      H1296   1.083       .  S
C1289      C1290   1.411       .  A
C1289      C1294   1.407       .  A
C1290      C1291   1.422       .  A
C1291      C1292   1.416       .  A
C1291      C1298   1.517       .  S
C1292      H1297   1.083       .  S
C1292      C1293   1.407       .  A
C1293      C1294   1.415       .  A
C1294      C1295   1.519   1_565  S
C1295      F1299   1.385       .  S
C1295      F1300   1.378       .  S
C1295      F1301   1.383       .  S
C1298      F1302   1.383       .  S
C1298      F1303   1.383       .  S
C1298      F1304   1.385       .  S
C1305      H1312   1.083       .  S
C1305      C1306   1.410       .  A
C1305      C1310   1.420       .  A
C1306      C1307   1.418       .  A
C1307      C1308   1.411       .  A
C1307      C1314   1.517       .  S
C1308      H1313   1.083       .  S
C1308      C1309   1.411       .  A
C1309      C1310   1.421       .  A
C1310      C1311   1.516   1_655  S
C1311      F1315   1.385       .  S
C1311      F1316   1.383       .  S
C1311      F1317   1.383       .  S
C1314      F1318   1.381       .  S
C1314      F1319   1.377       .  S
C1314      F1320   1.385       .  S
C1321      H1328   1.083       .  S
C1321      C1322   1.407       .  A
C1321      C1326   1.415       .  A
C1322      C1323   1.429       .  A
C1323      C1324   1.409       .  A
C1323      C1330   1.521       .  S
C1324      H1329   1.080       .  S
C1324      C1325   1.399       .  A
C1325      C1326   1.422       .  A
C1326      C1327   1.520       .  S
C1327      F1331   1.381       .  S
C1327      F1332   1.383       .  S
C1327      F1333   1.385       .  S
C1330      F1334   1.383       .  S
C1330      F1335   1.383       .  S
C1330      F1336   1.384       .  S
C1337      H1344   1.082       .  S
C1337      C1338   1.405       .  A
C1337      C1342   1.422       .  A
C1338      C1339   1.420       .  A
C1339      C1340   1.410       .  A
C1339      C1346   1.525       .  S
C1340      H1345   1.082       .  S
C1340      C1341   1.411       .  A
C1341      C1342   1.430       .  A
C1342      C1343   1.519       .  S
C1343      F1347   1.385       .  S
C1343      F1348   1.383       .  S
C1343      F1349   1.383       .  S
C1346      F1350   1.381       .  S
C1346      F1351   1.382       .  S
C1346      F1352   1.384       .  S
C1353      H1360   1.081       .  S
C1353      C1354   1.404       .  A
C1353      C1358   1.413       .  A
C1354      C1355   1.415       .  A
C1355      C1356   1.401       .  A
C1355      C1362   1.522       .  S
C1356      H1361   1.084       .  S
C1356      C1357   1.411       .  A
C1357      C1358   1.424       .  A
C1358      C1359   1.518   1_545  S
C1359      F1363   1.385       .  S
C1359      F1364   1.383       .  S
C1359      F1365   1.383       .  S
C1362      F1366   1.383       .  S
C1362      F1367   1.381       .  S
C1362      F1368   1.384       .  S
C1369      H1376   1.084       .  S
C1369      C1370   1.406       .  A
C1369      C1374   1.414       .  A
C1370      C1371   1.424       .  A
C1371      C1372   1.404       .  A
C1371      C1378   1.516       .  S
C1372      H1377   1.084       .  S
C1372      C1373   1.399       .  A
C1373      C1374   1.423       .  A
C1374      C1375   1.515       .  S
C1375      F1379   1.383       .  S
C1375      F1380   1.383       .  S
C1375      F1381   1.376       .  S
C1378      F1382   1.383       .  S
C1378      F1383   1.381       .  S
C1378      F1384   1.385       .  S
C1385      H1392   1.079       .  S
C1385      C1386   1.402       .  A
C1385      C1390   1.399       .  A
C1386      C1387   1.424       .  A
C1387      C1388   1.412       .  A
C1387      C1394   1.520       .  S
C1388      H1393   1.084       .  S
C1388      C1389   1.403       .  A
C1389      C1390   1.414       .  A
C1390      C1391   1.518       .  S
C1391      F1395   1.384       .  S
C1391      F1396   1.381       .  S
C1391      F1397   1.382       .  S
C1394      F1398   1.382       .  S
C1394      F1399   1.379       .  S
C1394      F1400   1.385       .  S
C1401      H1408   1.083       .  S
C1401      C1402   1.411       .  A
C1401      C1406   1.422       .  A
C1402      C1403   1.415       .  A
C1403      C1404   1.406       .  A
C1403      C1410   1.521       .  S
C1404      H1409   1.081       .  S
C1404      C1405   1.416       .  A
C1405      C1406   1.420       .  A
C1406      C1407   1.515   1_545  S
C1407      F1411   1.384       .  S
C1407      F1412   1.383       .  S
C1407      F1413   1.383       .  S
C1410      F1414   1.382       .  S
C1410      F1415   1.385       .  S
C1410      F1416   1.378       .  S
C1417      H1424   1.083       .  S
C1417      C1418   1.411       .  A
C1417      C1422   1.408       .  A
C1418      C1419   1.415       .  A
C1419      C1420   1.408       .  A
C1419      C1426   1.520       .  S
C1420      H1425   1.082       .  S
C1420      C1421   1.411       .  A
C1421      C1422   1.414       .  A
C1422      C1423   1.517       .  S
C1423      F1427   1.384       .  S
C1423      F1428   1.383       .  S
C1423      F1429   1.383       .  S
C1426      F1430   1.383       .  S
C1426      F1431   1.383       .  S
C1426      F1432   1.385       .  S
C1433      H1440   1.083       .  S
C1433      C1434   1.413       .  A
C1433      C1438   1.411       .  A
C1434      C1435   1.425       .  A
C1435      C1436   1.408       .  A
C1435      C1442   1.521       .  S
C1436      H1441   1.084       .  S
C1436      C1437   1.400       .  A
C1437      C1438   1.409       .  A
C1438      C1439   1.516       .  S
C1439      F1443   1.384       .  S
C1439      F1444   1.383       .  S
C1439      F1445   1.384       .  S
C1442      F1446   1.383       .  S
C1442      F1447   1.384       .  S
C1442      F1448   1.384       .  S
C1449      H1456   1.083       .  S
C1449      C1450   1.405       .  A
C1449      C1454   1.417       .  A
C1450      C1451   1.421       .  A
C1451      C1452   1.403       .  A
C1451      C1458   1.524   1_455  S
C1452      H1457   1.084       .  S
C1452      C1453   1.408       .  A
C1453      C1454   1.426       .  A
C1454      C1455   1.518       .  S
C1455      F1459   1.385       .  S
C1455      F1460   1.383       .  S
C1455      F1461   1.383       .  S
C1458      F1462   1.381       .  S
C1458      F1463   1.383       .  S
C1458      F1464   1.384       .  S
C1465      H1472   1.082       .  S
C1465      C1466   1.412       .  A
C1465      C1470   1.408       .  A
C1466      C1467   1.420       .  A
C1467      C1468   1.424       .  A
C1467      C1474   1.515       .  S
C1468      H1473   1.080       .  S
C1468      C1469   1.412       .  A
C1469      C1470   1.422       .  A
C1470      C1471   1.526       .  S
C1471      F1475   1.384       .  S
C1471      F1476   1.381       .  S
C1471      F1477   1.379       .  S
C1474      F1478   1.383       .  S
C1474      F1479   1.383       .  S
C1474      F1480   1.384       .  S
C1481      H1488   1.083       .  S
C1481      C1482   1.407       .  A
C1481      C1486   1.420   1_455  A
C1482      C1483   1.422   1_455  A
C1483      C1484   1.406       .  A
C1483      C1490   1.519       .  S
C1484      H1489   1.082       .  S
C1484      C1485   1.402       .  A
C1485      C1486   1.424       .  A
C1486      C1487   1.519       .  S
C1487      F1491   1.381       .  S
C1487      F1492   1.382       .  S
C1487      F1493   1.384   1_655  S
C1490      F1494   1.382       .  S
C1490      F1495   1.383       .  S
C1490      F1496   1.384       .  S
C1497      H1504   1.085       .  S
C1497      C1498   1.406       .  A
C1497      C1502   1.397       .  A
C1498      C1499   1.425       .  A
C1499      C1500   1.417       .  A
C1499      C1506   1.518       .  S
C1500      H1505   1.082       .  S
C1500      C1501   1.406       .  A
C1501      C1502   1.421       .  A
C1502      C1503   1.523       .  S
C1503      F1507   1.385       .  S
C1503      F1508   1.383       .  S
C1503      F1509   1.380       .  S
C1506      F1510   1.383       .  S
C1506      F1511   1.383       .  S
C1506      F1512   1.385       .  S
