geometry optimzed in LAMMPS
_audit_creation_date              2020-11-30 
_audit_creation_method            'lammps2cif' 
_symmetry_space_group_name_H-M    'P1' 
_symmetry_Int_Tables_number       1 
_symmetry_cell_setting            triclinic 
loop_ 
_symmetry_equiv_pos_as_xyz 
  x,y,z 
_cell_length_a                    28.69875958 
_cell_length_b                    28.7929389323687 
_cell_length_c                    40.65931885252142 
_cell_angle_alpha                 89.6886257344143 
_cell_angle_beta                  90.5756765788485 
_cell_angle_gamma                 120.2850417757542 
loop_ 
_atom_site_label 
_atom_site_type_symbol 
_atom_site_fract_x 
_atom_site_fract_y 
_atom_site_fract_z 
_atom_site_charge 
O1          O  0.08494926  0.28992171  0.32596115    -0.86300
C2          C  0.19799201  0.34026019  0.25321812     0.89700
Mg3        Mg  0.07862566  0.34102543  0.36295250     1.58100
O4          O  0.20002599  0.25726514  0.31648965    -0.86100
O5          O  0.07438764  0.21069026  0.31650496    -0.73400
C6          C  0.32340299  0.46293979  0.42770652     0.94700
O7          O  0.14924593  0.40656796  0.29488241    -0.73200
O8          O  0.28514368  0.47346884  0.42665936    -0.80700
Mg9        Mg  0.09389177  0.31952693  0.27643619     1.58000
C10         C  0.35212655  0.32143230  0.35928433     0.94700
O11         O  0.03563207  0.23970768  0.25384712    -0.79000
H12         H  0.16569225  0.18936222  0.34287193    -0.04300
C13         C  0.29547156  0.42238889  0.33398854     0.89600
O14         O  0.11057895  0.30819451  0.40315030    -0.73500
O15         O  0.15955962  0.30660019  0.26938583    -0.86200
O16         O  0.31932758  0.29290637  0.33690861    -0.79100
C17         C  0.25068276  0.23577132  0.24234760     0.94800
C18         C  0.03437744  0.20227744  0.23705084     0.94600
Mg19       Mg  0.26355428  0.34426449  0.38872622     1.58000
O20         O  0.32140997  0.42445150  0.41163463    -0.79000
O21         O  0.20840280  0.25696240  0.37032410    -0.73200
O22         O  0.20091644  0.22268484  0.24121543    -0.79100
O23         O  0.01963986  0.32320767  0.28245233    -0.80800
O24         O  0.15463730  0.44080344  0.42391392    -0.79100
C25         C  0.19065675  0.23271806  0.34294420     0.89100
O26         O  0.19727050  0.35668350  0.39613830    -0.86200
O27         O  0.27176691  0.37349365  0.33910228    -0.86300
O28         O  0.28188792  0.45252394  0.34867990    -0.73400
Mg29       Mg  0.13943344  0.22418873  0.27846054     1.58000
O30         O  0.28350877  0.26859178  0.26352841    -0.80800
H31         H  0.02783540  0.22367595  0.34822914    -0.04500
O32         O  0.15669882  0.40580509  0.34876831    -0.86000
H33         H  0.19166770  0.47389099  0.32257979    -0.04300
H34         H  0.16533572  0.30342341  0.43282168    -0.04500
C35         C  0.16654653  0.43055558  0.32236486     0.89100
C36         C  0.06091006  0.24100741  0.33105985     0.89600
C37         C  0.15844828  0.32259269  0.41191011     0.89700
H38         H  0.32840663  0.43988514  0.31672588    -0.04500
O39         O  0.24595124  0.35484885  0.26175356    -0.73500
Mg40       Mg  0.21696051  0.43916080  0.38681954     1.58000
H41         H  0.19069436  0.35895179  0.23220901    -0.04500
C42         C  0.00633523  0.34355455  0.30513524     0.94700
O43         O  0.07237931  0.39436620  0.40121772    -0.80700
C44         C  0.10472327  0.42743694  0.42245145     0.94700
O45         O  0.07231293  0.19136081  0.23823313    -0.80700
Mg46       Mg  0.27804118  0.32228219  0.30196169     1.58200
O47         O  0.03887043  0.37146820  0.32774268    -0.79100
O48         O  0.33860424  0.34152452  0.38205509    -0.80700
C49         C  0.33661148  0.13956042  0.18643289     0.04300
C50         C  0.33525312  0.18814039  0.18583262     0.04300
C51         C  0.37526235  0.23256064  0.16850068    -0.16300
C52         C  0.41680169  0.23001357  0.15220781     0.04300
C53         C  0.41890547  0.18238882  0.15320641     0.04300
C54         C  0.37861967  0.13745524  0.17009266    -0.16300
H55         H  0.37995980  0.10046906  0.17049270     0.06300
H56         H  0.37412939  0.26966115  0.16770964     0.06300
C57         C  0.85413276  0.11959908  0.18082672     0.04300
C58         C  0.90493527  0.16675365  0.18107110     0.04300
C59         C  0.91106651  0.21358480  0.16572988    -0.16300
C60         C  0.86802565  0.21367552  0.14855512     0.04300
C61         C  0.81808085  0.16423469  0.14561993     0.04300
C62         C  0.81165383  0.11849367  0.16263013    -0.16300
H63         H  0.77306422  0.08134208  0.16154588     0.06300
H64         H  0.94984994  0.25044615  0.16722326     0.06300
O65         O  0.27816396  0.89263425  0.33983324    -0.86300
C66         C  0.15791407  0.81473321  0.40652512     0.89700
Mg67       Mg  0.28133265  0.94953549  0.30362082     1.58100
O68         O  0.16265203  0.73435727  0.34306856    -0.86100
O69         O  0.28728550  0.82188697  0.34533801    -0.73400
C70         C  0.03758134  0.81423968  0.23296329     0.94700
O71         O  0.20252225  0.93244547  0.37050040    -0.73200
O72         O  0.07281611  0.86410333  0.23655078    -0.80700
Mg73       Mg  0.26120147  0.90538920  0.38929322     1.58000
C74         C  0.01754847  0.63670494  0.29235177     0.94700
O75         O  0.32138612  0.88608659  0.41227419    -0.79000
H76         H  0.20343842  0.70732212  0.31768183    -0.04300
C77         C  0.06114359  0.79589746  0.32528827     0.89600
O78         O  0.25289449  0.88626272  0.26288525    -0.73500
O79         O  0.19894071  0.82327946  0.39193799    -0.86200
O80         O  0.03826518  0.64405336  0.32098900    -0.79100
C81         C  0.11120580  0.65927774  0.41690341     0.94800
C82         C  0.32645258  0.84885520  0.42541856     0.94600
Mg83       Mg  0.10311331  0.75866530  0.26991023     1.58000
O84         O  0.04318151  0.77740565  0.24617573    -0.79000
O85         O  0.16135798  0.73156043  0.28903866    -0.73200
O86         O  0.16065838  0.69732147  0.41834263    -0.79100
O87         O  0.32927024  0.99059430  0.38874109    -0.80800
O88         O  0.20266194  0.96736075  0.24109580    -0.79100
C89         C  0.17631981  0.72310768  0.31688268     0.89100
O90         O  0.16537554  0.84118329  0.26721249    -0.86200
O91         O  0.08579402  0.77205677  0.31927208    -0.86300
O92         O  0.07558423  0.84198230  0.31325014    -0.73400
Mg93       Mg  0.22256843  0.76413921  0.38193218     1.58000
O94         O  0.07852222  0.65760948  0.39493538    -0.80800
H95         H  0.33577094  0.88611919  0.31670184    -0.04500
O96         O  0.20025968  0.92950363  0.31644284    -0.86000
H97         H  0.15935835  0.95596024  0.34227046    -0.04300
H98         H  0.20365361  0.82667049  0.23146409    -0.04500
C99         C  0.18675125  0.94049227  0.34278977     0.89100
C100        C  0.30203392  0.86813727  0.33337276     0.89600
C101        C  0.20673647  0.85058687  0.25266311     0.89700
H102        H  0.02701140  0.77749813  0.34165175    -0.04500
O103        O  0.11148730  0.77972712  0.39634055    -0.73500
Mg104      Mg  0.14072035  0.89976024  0.27709533     1.58000
H105        H  0.16156420  0.83904268  0.42763780    -0.04500
C106        C  0.34471177  0.02791665  0.36775803     0.94700
O107        O  0.28408958  0.00810044  0.26542990    -0.80700
C108        C  0.25165167  0.00622743  0.24323927     0.94700
O109        O  0.29070474  0.79918483  0.42201019    -0.80700
Mg110      Mg  0.08198806  0.71576418  0.35606793     1.58200
O111        O  0.32322761  0.02085521  0.33936067    -0.79100
O112        O  0.03461706  0.67338468  0.27081731    -0.80700
O113        O  0.65645199  0.74179731  0.34401568    -0.86300
C114        C  0.69200104  0.85699504  0.41284372     0.89700
Mg115      Mg  0.71323195  0.74759302  0.30743521     1.58100
O116        O  0.60285814  0.84729610  0.34957740    -0.86100
O117        O  0.57370515  0.72543865  0.34903005    -0.73400
C118        C  0.80461432  0.99015512  0.24130415     0.94700
O119        O  0.77114235  0.82106207  0.37691424    -0.73200
O120        O  0.82296340  0.95854252  0.24651906    -0.80700
Mg121      Mg  0.68597419  0.75676100  0.39387051     1.58000
C122        C  0.63486767  0.98958625  0.30174830     0.94700
O123        O  0.60712640  0.69108244  0.41583926    -0.79000
H124        H  0.53519455  0.80338975  0.32345862    -0.04300
C125        C  0.76320450  0.96208503  0.33487571     0.89600
O126        O  0.67402173  0.77406387  0.26809150    -0.73500
O127        O  0.66097401  0.81496498  0.39816167    -0.86200
O128        O  0.62393865  0.96815168  0.33020055    -0.79100
C129        C  0.57345296  0.88863193  0.42523357     0.94800
C130        C  0.56385199  0.68360534  0.42888259     0.94600
Mg131      Mg  0.68422077  0.91677188  0.27785735     1.58000
O132        O  0.76119443  0.98253018  0.25419753    -0.79000
O133        O  0.60039674  0.85201050  0.29573566    -0.73200
O134        O  0.56721015  0.84136985  0.42535050    -0.79100
O135        O  0.70831055  0.69270817  0.39001251    -0.80800
O136        O  0.80530894  0.83717785  0.24805166    -0.79100
C137        C  0.57762348  0.83348093  0.32320940     0.89100
O138        O  0.71117534  0.86067731  0.27462880    -0.86200
O139        O  0.71485519  0.93454612  0.32762151    -0.86300
O140        O  0.79793541  0.95168638  0.32345058    -0.73400
Mg141      Mg  0.57661033  0.78594071  0.38713695     1.58000
O142        O  0.60129187  0.92370071  0.40369175    -0.80800
H143        H  0.59457324  0.68235662  0.31943648    -0.04500
O144        O  0.76904661  0.82915897  0.32328703    -0.86000
H145        H  0.83685462  0.87062270  0.34974381    -0.04300
H146        H  0.65917913  0.82159640  0.23799268    -0.04500
C147        C  0.79422111  0.84118138  0.34969814     0.89100
C148        C  0.60798532  0.71494379  0.33687649     0.89600
C149        C  0.68129052  0.81937561  0.25903370     0.89700
H150        H  0.77603835  0.99498224  0.35201886    -0.04500
O151        O  0.69873372  0.90205736  0.40347984    -0.73500
Mg152      Mg  0.79546517  0.89120455  0.28585486     1.58000
H153        H  0.71531982  0.85558818  0.43346305    -0.04500
C154        C  0.73271536  0.68203444  0.36823515     0.94700
O155        O  0.77181713  0.75419945  0.26857425    -0.80700
C156        C  0.79942794  0.79024272  0.24746531     0.94700
O157        O  0.54761254  0.71732918  0.42567569    -0.80700
Mg158      Mg  0.65895267  0.92900380  0.36448961     1.58200
O159        O  0.74804555  0.70781234  0.34125476    -0.79100
O160        O  0.65835892  0.97769580  0.28005791    -0.80700
C161        C  0.90122233  0.72578597  0.17957262     0.04300
C162        C  0.85117904  0.72374634  0.18097259     0.04300
C163        C  0.80677192  0.68429972  0.16332400    -0.16300
C164        C  0.81021662  0.64500650  0.14518986     0.04300
C165        C  0.85896938  0.64413681  0.14538023     0.04300
C166        C  0.90438050  0.68527717  0.16208300    -0.16300
H167        H  0.94227534  0.68550073  0.16169293     0.06300
H168        H  0.76872962  0.68384052  0.16400175     0.06300
O169        O  0.44680392  0.04773007  0.00945579    -0.86300
C170        C  0.53014920  0.00476074  0.07532292     0.89700
Mg171      Mg  0.38527070  0.99505324  0.97422671     1.58100
O172        O  0.60924524  0.08752553  0.00996411    -0.86100
O173        O  0.52225231  0.12542907  0.01318675    -0.73400
C174        C  0.50833581  0.87738611  0.90463988     0.94700
O175        O  0.40486351  0.93103072  0.04155760    -0.73200
O176        O  0.45961517  0.86581484  0.90884914    -0.80700
Mg177      Mg  0.43790161  0.01755552  0.05926641     1.58000
C178        C  0.69734649  0.03021035  0.95718284     0.94700
O179        O  0.46198489  0.09693385  0.08244319    -0.79000
H180        H  0.63840437  0.15518241  0.98360210    -0.04300
C181        C  0.53602130  0.92328817  0.99662225     0.89600
O182        O  0.44692692  0.02608928  0.93239821    -0.73500
O183        O  0.52040161  0.03535299  0.05931078    -0.86200
O184        O  0.69495445  0.04580837  0.98612576    -0.79100
C185        C  0.68886853  0.11360486  0.08285970     0.94800
C186        C  0.50142916  0.13798950  0.09533265     0.94600
Mg187      Mg  0.57359550  0.99990179  0.93893415     1.58000
O188        O  0.54799182  0.91896796  0.91698506    -0.79000
O189        O  0.60772908  0.08735203  0.95599633    -0.73200
O190        O  0.64996096  0.12335526  0.08451998    -0.79100
O191        O  0.35301047  0.00278933  0.06170522    -0.80800
O192        O  0.36051502  0.89594335  0.91318259    -0.79100
C193        C  0.61990816  0.11186299  0.98343378     0.89100
O194        O  0.49131754  0.98360956  0.93834203    -0.86200
O195        O  0.56426188  0.97127829  0.98903254    -0.86300
O196        O  0.48827287  0.89401649  0.98537082    -0.73400
Mg197      Mg  0.58143634  0.11801937  0.04897317     1.58000
O198        O  0.69005377  0.08243424  0.06106154    -0.80800
H199        H  0.45772862  0.11329645  0.98554534    -0.04500
O200        O  0.40216780  0.93210939  0.98765192    -0.86000
H201        H  0.37351986  0.86389909  0.01334562    -0.04300
H202        H  0.50583113  0.03503656  0.90132348    -0.04500
C203        C  0.39190628  0.90719407  0.01394336     0.89100
C204        C  0.47440464  0.09593042  0.00219431     0.89600
C205        C  0.48232137  0.01527926  0.92290876     0.89700
H206        H  0.55208489  0.90586809  0.01368434    -0.04500
O207        O  0.56580225  0.99422876  0.06608117    -0.73500
Mg208      Mg  0.42934863  0.90114482  0.94901364     1.58000
H209        H  0.50712231  0.98573859  0.09718705    -0.04500
C210        C  0.31371793  0.98525843  0.04164879     0.94700
O211        O  0.32165646  0.93815152  0.93652813    -0.80700
C212        C  0.32203270  0.90643797  0.91479884     0.94700
O213        O  0.55035925  0.15109736  0.09011925    -0.80700
Mg214      Mg  0.62648964  0.02472807  0.02383073     1.58200
O215        O  0.31708850  0.97284448  0.01204340    -0.79100
O216        O  0.65780232  0.01214351  0.93727800    -0.80700
O217        O  0.56354250  0.59867837  0.99181341    -0.86300
C218        C  0.48573173  0.48095467  0.92365834     0.89700
Mg219      Mg  0.62140299  0.60028362  0.02696439     1.58100
O220        O  0.40926041  0.48553935  0.98919328    -0.86100
O221        O  0.49359829  0.60937763  0.98791411    -0.73400
C222        C  0.49351150  0.35929791  0.09401375     0.94700
O223        O  0.60491467  0.52670456  0.95799533    -0.73200
O224        O  0.54263050  0.39503613  0.08936011    -0.80700
Mg225      Mg  0.57574579  0.58479058  0.94159877     1.58000
C226        C  0.31214167  0.34169731  0.03609665     0.94700
O227        O  0.55377866  0.64450192  0.91982569    -0.79000
H228        H  0.38090331  0.52399815  0.01578693    -0.04300
C229        C  0.46832947  0.38249584  0.00240789     0.89600
O230        O  0.55934324  0.57161381  0.06817838    -0.73500
O231        O  0.49438136  0.52171418  0.93869816    -0.86200
O232        O  0.31883952  0.36890799  0.01018686    -0.79100
C233        C  0.33232685  0.43716686  0.91494281     0.94800
C234        C  0.51414965  0.64661841  0.90732413     0.94600
Mg235      Mg  0.43341583  0.42210652  0.05970459     1.58000
O236        O  0.45449831  0.36243197  0.08154372    -0.79000
O237        O  0.40491452  0.48043477  0.04306937    -0.73200
O238        O  0.37090331  0.48579787  0.91461008    -0.79100
O239        O  0.65963763  0.65379685  0.94410439    -0.80800
O240        O  0.64074515  0.51976201  0.08600941    -0.79100
C241        C  0.39716568  0.49732066  0.01574878     0.89100
O242        O  0.51534369  0.48449264  0.06265508    -0.86200
O243        O  0.44548302  0.40756780  0.00971336    -0.86300
O244        O  0.51497213  0.39619147  0.01354324    -0.73400
Mg245      Mg  0.43562860  0.54477713  0.95129734     1.58000
O246        O  0.32893994  0.40341700  0.93640969    -0.80800
H247        H  0.55947677  0.65668554  0.01615778    -0.04500
O248        O  0.60031748  0.52047555  0.01184017    -0.86000
H249        H  0.62892852  0.48267454  0.98482308    -0.04300
H250        H  0.50106005  0.52104990  0.09959109    -0.04500
C251        C  0.61251846  0.50922032  0.98514493     0.89100
C252        C  0.54019094  0.62322312  0.99925287     0.89600
C253        C  0.52457340  0.52511380  0.07803467     0.89700
H254        H  0.44859505  0.34876511  0.98572358    -0.04500
O255        O  0.45104883  0.43442544  0.93356862    -0.73500
Mg256      Mg  0.57370976  0.46077802  0.04984196     1.58000
H257        H  0.50971996  0.48494930  0.90235717    -0.04500
C258        C  0.69705337  0.66555878  0.96481000     0.94700
O259        O  0.68144210  0.60213607  0.06412030    -0.80700
C260        C  0.67950882  0.56840792  0.08513656     0.94700
O261        O  0.46545011  0.61001581  0.91191372    -0.80700
Mg262      Mg  0.38822989  0.40585879  0.97429430     1.58200
O263        O  0.69071401  0.63871945  0.99086871    -0.79100
O264        O  0.34920157  0.35331434  0.05705893    -0.80700
O265        O  0.04668463  0.45007398  0.99354995    -0.86300
C266        C  0.98904970  0.50228591  0.91939636     0.89700
Mg267      Mg  0.99976038  0.40408145  0.03557363     1.58100
O268        O  0.08629465  0.59534298  0.97483494    -0.86100
O269        O  0.12635493  0.51222029  0.97777706    -0.73400
C270        C  0.90135207  0.55089335  0.09422904     0.94700
O271        O  0.92587020  0.39764772  0.96990455    -0.73200
O272        O  0.88876827  0.50153958  0.09672913    -0.80700
Mg273      Mg  0.00817982  0.41832669  0.94721259     1.58000
C274        C  0.04619343  0.70555989  0.00824647     0.94700
O275        O  0.08380661  0.43233754  0.92075086    -0.79000
H276        H  0.15887604  0.63095208  0.99676290    -0.04300
C277        C  0.92769245  0.54385766  0.00085734     0.89600
O278        O  0.04465402  0.47774797  0.06917310    -0.73500
O279        O  0.02527348  0.49780169  0.93303039    -0.86200
O280        O  0.06991482  0.68964017  0.98952491    -0.79100
C281        C  0.10255469  0.66016405  0.89771920     0.94800
C282        C  0.12165277  0.46547986  0.90229830     0.94600
Mg283      Mg  0.01510670  0.59854948  0.04943692     1.58000
O284        O  0.93901612  0.58410393  0.07568635    -0.79000
O285        O  0.09790065  0.61975534  0.02688881    -0.73200
O286        O  0.11394389  0.62232219  0.89693850    -0.79100
O287        O  0.99794955  0.33655200  0.96187392    -0.80800
O288        O  0.90913852  0.39357624  0.09992489    -0.79100
C289        C  0.11612195  0.61600020  0.99911765     0.89100
O290        O  0.99881306  0.51929973  0.06400986    -0.86200
O291        O  0.97716712  0.56591342  0.00314753    -0.86300
O292        O  0.89749530  0.50405687  0.01894046    -0.73400
Mg293      Mg  0.11080777  0.55968553  0.93750866     1.58000
O294        O  0.07196905  0.66168050  0.91925568    -0.80800
H295        H  0.11418454  0.45723907  0.01320086    -0.04500
O296        O  0.93776910  0.42126044  0.02209760    -0.86000
H297        H  0.86514074  0.38624516  0.00027463    -0.04300
H298        H  0.06158723  0.54471677  0.09497820    -0.04500
C299        C  0.90784009  0.40100905  0.99781456     0.89100
C300        C  0.09620323  0.47218485  0.99573480     0.89600
C301        C  0.03550942  0.51499344  0.07713636     0.89700
H302        H  0.90980981  0.55869661  0.98324607    -0.04500
O303        O  0.97956373  0.53930436  0.92728858    -0.73500
Mg304      Mg  0.91319823  0.45691870  0.05937039     1.58000
H305        H  0.96362792  0.47287215  0.90121869    -0.04500
C306        C  0.97481193  0.30944642  0.98736131     0.94700
O307        O  0.95144869  0.35426910  0.07804073    -0.80700
C308        C  0.92019290  0.35546261  0.09928517     0.94700
O309        O  0.13483617  0.51501412  0.90000216    -0.80700
Mg310      Mg  0.02413682  0.61226091  0.96133859     1.58200
O311        O  0.95387963  0.32616637  0.00773370    -0.79100
O312        O  0.02323166  0.67928204  0.03398248    -0.80700
O313        O  0.27585095  0.06203435  0.66559675    -0.86300
C314        C  0.32104316  0.17952610  0.73451737     0.89700
Mg315      Mg  0.32811077  0.06328970  0.62713372     1.58100
O316        O  0.23036353  0.16624887  0.67167472    -0.86100
O317        O  0.19366355  0.04358509  0.67465763    -0.73400
C318        C  0.43222150  0.30824202  0.56235095     0.94700
O319        O  0.39375404  0.13773030  0.69444154    -0.73200
O320        O  0.44731502  0.27342213  0.56434011    -0.80700
Mg321      Mg  0.30946664  0.07718614  0.71459767     1.58000
C322        C  0.26908727  0.31050852  0.62893915     0.94700
O323        O  0.23196685  0.01525505  0.74061078    -0.79000
H324        H  0.16157067  0.12391754  0.64617149    -0.04300
C325        C  0.39006655  0.27682503  0.65416444     0.89600
O326        O  0.28826665  0.09031956  0.58859704    -0.73500
O327        O  0.28861358  0.13762127  0.72015414    -0.86200
O328        O  0.24370508  0.27336227  0.64949949    -0.79100
C329        C  0.20633511  0.21454190  0.74723649     0.94800
C330        C  0.19190896  0.01210125  0.75577037     0.94600
Mg331      Mg  0.31067966  0.23743114  0.59882980     1.58000
O332        O  0.38959415  0.30127607  0.57605907    -0.79600
O333        O  0.22582962  0.17380607  0.61795064    -0.73200
O334        O  0.19995555  0.16747922  0.74820007    -0.79100
O335        O  0.32618792  0.01032347  0.70912046    -0.80800
O336        O  0.42396057  0.14643193  0.56537864    -0.79100
C337        C  0.20412269  0.15354163  0.64556714     0.89100
O338        O  0.33251378  0.17787868  0.59195709    -0.86200
O339        O  0.34134585  0.24914255  0.64816168    -0.86300
O340        O  0.42380866  0.26679936  0.64084411    -0.73400
Mg341      Mg  0.20378284  0.10905873  0.71098901     1.58000
O342        O  0.23184247  0.24758994  0.72434718    -0.80800
H343        H  0.21207965  0.99894825  0.64473767    -0.04500
O344        O  0.38818690  0.14392762  0.64083016    -0.86000
H345        H  0.45814279  0.18382109  0.66542300    -0.04300
H346        H  0.27565701  0.13850925  0.55771244    -0.04500
C347        C  0.41517506  0.15592859  0.66656445     0.89100
C348        C  0.22687650  0.03323370  0.66096538     0.89600
C349        C  0.29869510  0.13609053  0.57816206     0.89700
H350        H  0.40417983  0.30982607  0.67135539    -0.04500
O351        O  0.32910469  0.22496637  0.72487592    -0.73500
Mg352      Mg  0.41676278  0.20444555  0.60288945     1.58000
H353        H  0.34428907  0.17759278  0.75500954    -0.04500
C354        C  0.34871200  0.99922512  0.68643367     0.94700
O355        O  0.38230573  0.06396753  0.58736663    -0.80700
C356        C  0.41350515  0.09761985  0.56622769     0.94700
O357        O  0.17700138  0.04655906  0.75191831    -0.80700
Mg358      Mg  0.28678948  0.24750144  0.68515906     1.58200
O359        O  0.36489888  0.02613727  0.66004023    -0.79100
O360        O  0.29536429  0.30545537  0.60595470    -0.80700
C361        C  0.15923240  0.36955328  0.85068544     0.04300
C362        C  0.20607593  0.36532306  0.85119099     0.04300
C363        C  0.20752919  0.32525392  0.83265522    -0.16300
C364        C  0.16250738  0.28796362  0.81444763     0.04300
C365        C  0.11400502  0.28907197  0.81590409     0.04300
C366        C  0.11313566  0.33050453  0.83364594    -0.16300
H367        H  0.07643686  0.33257845  0.83402098     0.06300
H368        H  0.24431616  0.32329650  0.83221521     0.06300
C369        C  0.14280937  0.79820310  0.84933861     0.04300
C370        C  0.18893508  0.85043144  0.85347525     0.04300
C371        C  0.18947853  0.89417169  0.83738867    -0.16300
C372        C  0.14516306  0.88780386  0.81856459     0.04300
C373        C  0.09757297  0.83730037  0.81704336     0.04300
C374        C  0.09732431  0.79286943  0.83198891    -0.16300
H375        H  0.06142508  0.75346913  0.82978571     0.06300
H376        H  0.22536035  0.93370081  0.83904929     0.06300
O377        O  0.90320850  0.22271709  0.67879266    -0.86300
C378        C  0.79967782  0.16356289  0.75447676     0.89700
Mg379      Mg  0.89862923  0.27219455  0.63965183     1.58100
O380        O  0.80261090  0.07821681  0.69390522    -0.86100
O381        O  0.92546229  0.16270030  0.69033170    -0.73400
C382        C  0.65240464  0.12489531  0.58018187     0.94700
O383        O  0.83562075  0.26996028  0.70823910    -0.73200
O384        O  0.68817443  0.17486506  0.58013230    -0.80700
Mg385      Mg  0.90099731  0.25038387  0.72724111     1.58000
C386        C  0.65360644  0.96604848  0.65871197     0.94700
O387        O  0.96628089  0.23619121  0.75005458    -0.79000
H388        H  0.84047209  0.04760674  0.66876505    -0.04300
C389        C  0.68894084  0.12472104  0.67433957     0.89600
O390        O  0.87012496  0.20334465  0.60256515    -0.73500
O391        O  0.84045848  0.17009398  0.74025628    -0.86200
O392        O  0.69223588  0.98248016  0.67887709    -0.79100
C393        C  0.76089436  0.00706853  0.76973199     0.94800
C394        C  0.97285953  0.20180191  0.76609782     0.94600
Mg395      Mg  0.72275628  0.07822446  0.62186054     1.58000
O396        O  0.65697962  0.09063891  0.59777249    -0.79000
O397        O  0.78774643  0.05911273  0.64112705    -0.73200
O398        O  0.81000599  0.04573226  0.77007593    -0.79100
O399        O  0.97144375  0.33237493  0.71307051    -0.80800
O400        O  0.81373868  0.28046084  0.57798157    -0.79100
C401        C  0.81137785  0.06096504  0.66823969     0.89100
O402        O  0.78291339  0.15885051  0.60981552    -0.86200
O403        O  0.71781180  0.10500737  0.66998048    -0.86300
O404        O  0.69628173  0.16554330  0.65808113    -0.73400
Mg405      Mg  0.86533412  0.11089451  0.73050166     1.58000
O406        O  0.72642583  0.00556003  0.74949685    -0.80800
H407        H  0.96375189  0.22105664  0.65593818    -0.04500
O408        O  0.81949549  0.25101824  0.65534837    -0.86000
H409        H  0.78184362  0.28104493  0.68134176    -0.04300
H410        H  0.81833985  0.13879228  0.57499630    -0.04500
C411        C  0.81107155  0.26785867  0.68136939     0.89100
C412        C  0.93215733  0.20323899  0.67406930     0.89600
C413        C  0.82312201  0.16604448  0.59464011     0.89700
H414        H  0.65694914  0.10696246  0.69222665    -0.04500
O415        O  0.75271889  0.12702368  0.74578578    -0.73500
Mg416      Mg  0.75733663  0.21728087  0.61814644     1.58000
H417        H  0.80398418  0.19105798  0.77385024    -0.04500
C418        C  0.97123452  0.35888234  0.68825811     0.94700
O419        O  0.89681522  0.32465829  0.59932750    -0.80700
C420        C  0.86244774  0.31995061  0.57783834     0.94700
O421        O  0.93661744  0.15201803  0.76720590    -0.80700
Mg422      Mg  0.72349154  0.05706706  0.70946854     1.58200
O423        O  0.92844404  0.34400733  0.67214126    -0.79100
O424        O  0.65461866  0.99483116  0.63480245    -0.80700
O425        O  0.71655231  0.62242743  0.65875322    -0.86300
C426        C  0.83619147  0.66663604  0.58998090     0.89700
Mg427      Mg  0.71287808  0.67534039  0.69533693     1.58100
O428        O  0.83567023  0.58242424  0.65353599    -0.86100
O429        O  0.70959917  0.54355588  0.65301860    -0.73400
C430        C  0.96134038  0.78841067  0.76228846     0.94700
O431        O  0.78997384  0.73934808  0.62719177    -0.73200
O432        O  0.92522031  0.80186366  0.75914011    -0.80700
Mg433      Mg  0.73294331  0.65308776  0.60896434     1.58000
C434        C  0.98746169  0.63814652  0.70230470     0.94700
O435        O  0.67369228  0.57446054  0.58507633    -0.79000
H436        H  0.79743416  0.51443204  0.67959791    -0.04300
C437        C  0.93448051  0.74682118  0.66894933     0.89600
O438        O  0.74589149  0.64329887  0.73558595    -0.73500
O439        O  0.79639725  0.63500366  0.60598130    -0.86200
O440        O  0.96666954  0.62321257  0.67367197    -0.79100
C441        C  0.88217470  0.55733062  0.57890837     0.94800
C442        C  0.66956515  0.53323799  0.57130399     0.94600
Mg443      Mg  0.89696130  0.66793718  0.72530222     1.58000
O444        O  0.95668663  0.74702481  0.74844467    -0.79000
O445        O  0.83960480  0.58152124  0.70744820    -0.73200
O446        O  0.83330887  0.54735942  0.57839556    -0.79100
O447        O  0.66292405  0.66612173  0.61003905    -0.80800
O448        O  0.79460576  0.77368442  0.75635685    -0.79100
C449        C  0.82372293  0.55762657  0.67991607     0.89100
O450        O  0.83289616  0.68581834  0.72878559    -0.86200
O451        O  0.91238431  0.69832669  0.67548446    -0.86300
O452        O  0.91889045  0.77699722  0.68154839    -0.73400
Mg453      Mg  0.77348413  0.55199251  0.61554072     1.58000
O454        O  0.91678394  0.58852162  0.60011408    -0.80800
H455        H  0.66082728  0.55709045  0.68238878    -0.04500
O456        O  0.79318468  0.73844927  0.68112599    -0.86000
H457        H  0.83168174  0.80644106  0.65509671    -0.04300
H458        H  0.79733420  0.63362073  0.76556552    -0.04500
C459        C  0.80544009  0.76324078  0.65474728     0.89100
C460        C  0.69403518  0.57393190  0.66531671     0.89600
C461        C  0.79269758  0.65392104  0.74443388     0.89700
H462        H  0.96743139  0.76388222  0.65169873    -0.04500
O463        O  0.88313925  0.67760284  0.59862553    -0.73500
Mg464      Mg  0.85536898  0.76879959  0.71926598     1.58000
H465        H  0.83107780  0.68652402  0.56879486    -0.04500
C466        C  0.64229476  0.68219292  0.63115879     0.94700
O467        O  0.71159648  0.73230373  0.73383580    -0.80700
C468        C  0.74562062  0.76367520  0.75524741     0.94700
O469        O  0.70501830  0.51924663  0.57539684    -0.80700
Mg470      Mg  0.91592067  0.64540130  0.63880469     1.58200
O471        O  0.66234877  0.69720134  0.65995987    -0.79100
O472        O  0.96761535  0.65485118  0.72363184    -0.80700
C473        C  0.58715068  0.77590270  0.84907705     0.04300
C474        C  0.58832725  0.82522550  0.85027386     0.04300
C475        C  0.63116160  0.87061555  0.83531427    -0.16300
C476        C  0.67218470  0.86749584  0.81845893     0.04300
C477        C  0.66887246  0.81674652  0.81541384     0.04300
C478        C  0.62665671  0.77188905  0.83124750    -0.16300
H479        H  0.62481192  0.73335190  0.82997650     0.06300
H480        H  0.63282243  0.90902272  0.83704813     0.06300
C481        C  0.02270957  0.48026251  0.47845804     0.04300
C482        C  0.02644741  0.53126462  0.47791619     0.04300
C483        C  0.99035356  0.53929616  0.49686476    -0.16300
C484        C  0.95055160  0.49805889  0.51630402     0.04300
C485        C  0.94555562  0.44649155  0.51602235     0.04300
C486        C  0.98187634  0.43854301  0.49717846    -0.16300
H487        H  0.97871822  0.39936445  0.49739659     0.06300
H488        H  0.99372965  0.57857827  0.49678884     0.06300
C489        C  0.45477939  0.49997962  0.48189147     0.04300
C490        C  0.50717638  0.54541068  0.48174292     0.04300
C491        C  0.54962318  0.54261582  0.49766166    -0.16300
C492        C  0.54101071  0.49513427  0.51338602     0.04300
C493        C  0.48888249  0.44925803  0.51278155     0.04300
C494        C  0.44631711  0.45225812  0.49718799    -0.16300
H495        H  0.40617717  0.41705223  0.49693051     0.06300
H496        H  0.58975097  0.57783396  0.49791633     0.06300
C497        C  0.50757096  0.95327065  0.48456321     0.04300
C498        C  0.45375545  0.94193685  0.48171709     0.04300
C499        C  0.43923354  0.97694079  0.49642793    -0.16300
C500        C  0.47681381  0.02222986  0.51448430     0.04300
C501        C  0.52996281  0.03209018  0.51863803     0.04300
C502        C  0.54483562  0.99779610  0.50331319    -0.16300
H503        H  0.58596976  0.00598384  0.50590630     0.06300
H504        H  0.39816070  0.96889203  0.49372336     0.06300
O505        O  0.08627481  0.99415988  0.99123433    -0.86300
C506        C  0.93855216  0.89263802  0.03088905     0.89700
Mg507      Mg  0.14003928  0.07226308  0.00994410     1.58100
O508        O  0.93221004  0.94602055  0.95335959    -0.86100
O509        O  0.04655752  0.95135574  0.94576421    -0.73400
C510        C  0.98601287  0.17856129  0.01285156     0.94700
O511        O  0.05058628  0.98482683  0.06776495    -0.73200
O512        O  0.02963678  0.18556510  0.02550454    -0.80700
Mg513      Mg  0.05379396  0.93130734  0.02708603     1.58000
C514        C  0.82893414  0.01434782  0.95001795     0.94700
O515        O  0.06291234  0.87720602  0.99106263    -0.79000
H516        H  0.94699331  0.95595975  0.90509643    -0.04300
C517        C  0.92207321  0.02304013  0.03531773     0.89600
O518        O  0.11248270  0.10940332  0.96929685    -0.73500
O519        O  0.97470457  0.91061480  0.01028971    -0.86200
O520        O  0.82402635  0.96802986  0.95443430    -0.79100
C521        C  0.82562820  0.81386149  0.96637623     0.94800
C522        C  0.02645024  0.83119219  0.98187693     0.94600
Mg523      Mg  0.95565944  0.07669280  0.96944673     1.58000
O524        O  0.94835992  0.13214878  0.00531329    -0.79000
O525        O  0.95706323  0.02247168  0.92865921    -0.73200
O526        O  0.87324816  0.82171997  0.96747355    -0.79100
O527        O  0.13571934  0.95085880  0.04345448    -0.80800
O528        O  0.13688988  0.18646479  0.02815820    -0.79100
C529        C  0.94486513  0.97352435  0.92805839     0.89100
O530        O  0.03509381  0.09678390  0.98578136    -0.86200
O531        O  0.92367285  0.01428812  0.00572753    -0.86300
O532        O  0.96350282  0.05854118  0.05073327    -0.73400
Mg533      Mg  0.95909928  0.88827397  0.95958825     1.58000
O534        O  0.81466950  0.85139207  0.96879472    -0.80800
H535        H  0.12523308  0.01046634  0.94841436    -0.04500
O536        O  0.07651970  0.06184442  0.04342469    -0.86000
H537        H  0.05936561  0.05079471  0.09139256    -0.04300
H538        H  0.06827237  0.13470798  0.94362876    -0.04500
C539        C  0.06263512  0.03375208  0.06850874     0.89100
C540        C  0.08791807  0.98635621  0.96148651     0.89600
C541        C  0.07151441  0.11465499  0.96534646     0.89700
H542        H  0.88474519  0.99951421  0.04848520    -0.04500
O543        O  0.89794548  0.89859892  0.02756438    -0.73500
Mg544      Mg  0.05107558  0.12040130  0.03635543     1.58000
H545        H  0.94192205  0.87216427  0.05235400    -0.04500
C546        C  0.17924262  0.99433181  0.04873097     0.94700
O547        O  0.19450854  0.15576040  0.02960349    -0.80700
C548        C  0.18405287  0.19364469  0.03117700     0.94700
O549        O  0.98262853  0.82390857  0.96923701    -0.80700
Mg550      Mg  0.86938875  0.93574166  0.98764321     1.58200
O551        O  0.18342322  0.04030156  0.04457707    -0.79100
O552        O  0.87331428  0.05748599  0.95412189    -0.80700
O553        O  0.70094910  0.25633714  0.34476512    -0.86300
C554        C  0.74972323  0.36685103  0.26989249     0.89700
Mg555      Mg  0.61732597  0.20361470  0.35329249     1.58100
O556        O  0.75901041  0.42312069  0.34801532    -0.86100
O557        O  0.76701512  0.32266130  0.37193201    -0.73400
C558        C  0.50261099  0.34909731  0.34908947     0.94700
O559        O  0.64619213  0.24349827  0.27232510    -0.73200
O560        O  0.49774012  0.30502533  0.34030228    -0.80700
Mg561      Mg  0.72723708  0.26180108  0.29438256     1.58000
C562        C  0.71297271  0.53485198  0.36222994     0.94700
O563        O  0.81160095  0.27628794  0.30838436    -0.79000
H564        H  0.79225093  0.44179801  0.39295723    -0.04300
C565        C  0.63110431  0.39398648  0.29340364     0.89600
O566        O  0.61686069  0.26010923  0.39294788    -0.73500
O567        O  0.75489587  0.34671115  0.29562106    -0.86200
O568        O  0.74528238  0.52767610  0.34465345    -0.79100
C569        C  0.86952791  0.50906015  0.29598170     0.94800
C570        C  0.85697900  0.31800405  0.31457400     0.94600
Mg571      Mg  0.63311566  0.40585879  0.36890777     1.58000
O572        O  0.54795332  0.39095858  0.35538303    -0.79000
O573        O  0.71432301  0.42401575  0.39065433    -0.73200
O574        O  0.86285682  0.46317607  0.30286954    -0.79100
O575        O  0.69437868  0.17146096  0.29317861    -0.80800
O576        O  0.49743113  0.20407942  0.35985761    -0.79100
C577        C  0.75719359  0.43082183  0.37764505     0.89100
O578        O  0.60538926  0.32090685  0.36744129    -0.86200
O579        O  0.65943075  0.41177426  0.31842591    -0.86300
O580        O  0.59327381  0.34543050  0.29129868    -0.73400
Mg581      Mg  0.80890415  0.39207792  0.33540613     1.58000
O582        O  0.83256319  0.52052107  0.29977712    -0.80800
H583        H  0.71963863  0.24829264  0.39109610    -0.04500
O584        O  0.60166553  0.24499193  0.31486863    -0.86000
H585        H  0.56836798  0.22604548  0.26993899    -0.04300
H586        H  0.61046502  0.31863556  0.41644233    -0.04500
C587        C  0.60341198  0.23704005  0.28526825     0.89100
C588        C  0.72916953  0.27411651  0.36982619     0.89600
C589        C  0.61036612  0.30062763  0.39316193     0.89700
H590        H  0.64050950  0.41983718  0.27215663    -0.04500
O591        O  0.74325649  0.40740237  0.27007755    -0.73500
Mg592      Mg  0.55144401  0.27568620  0.32760423     1.58000
H593        H  0.74941397  0.34868302  0.24663250    -0.04500
C594        C  0.64804802  0.13326099  0.30163340     0.94700
O595        O  0.52830376  0.14719779  0.36250675    -0.80700
C596        C  0.49099291  0.15811596  0.36620036     0.94700
O597        O  0.86225594  0.36238262  0.32298243    -0.80700
Mg598      Mg  0.74320108  0.46441545  0.30961950     1.58200
O599        O  0.61523398  0.14059654  0.31848094    -0.79100
O600        O  0.66661465  0.49655084  0.37067180    -0.80700
O601        O  0.25068563  0.69213643  0.66076532    -0.86300
C602        C  0.37474256  0.73455157  0.72401327     0.89700
Mg603      Mg  0.18658086  0.61121322  0.66005501     1.58100
O604        O  0.39555593  0.72025437  0.64031193    -0.86100
O605        O  0.30778042  0.75297091  0.62754630    -0.73400
C606        C  0.29096120  0.45714193  0.64818152     0.94700
O607        O  0.24600021  0.64586328  0.73347384    -0.73200
O608        O  0.25132785  0.45857049  0.66034486    -0.80700
Mg609      Mg  0.26941124  0.72721666  0.70882815     1.58000
C610        C  0.48889581  0.65190767  0.62133680     0.94700
O611        O  0.29457523  0.81336245  0.69193476    -0.79000
H612        H  0.40276076  0.74438866  0.59344575    -0.04300
C613        C  0.36933146  0.59404640  0.69732874     0.89600
O614        O  0.22122796  0.59323165  0.61400415    -0.73500
O615        O  0.35079950  0.74291698  0.70128060    -0.86200
O616        O  0.48279949  0.69124162  0.62778147    -0.79100
C617        C  0.51391458  0.82834292  0.67488262     0.94800
C618        C  0.33842520  0.85515036  0.68344277     0.94600
Mg619      Mg  0.35935042  0.58484011  0.62364544     1.58000
O620        O  0.33513023  0.49899334  0.64022197    -0.79000
O621        O  0.38143824  0.66597820  0.59928864    -0.73200
O622        O  0.47240383  0.83277418  0.67776773    -0.79100
O623        O  0.18083911  0.70888248  0.71300032    -0.80800
O624        O  0.15516213  0.47740785  0.65684534    -0.79100
C625        C  0.39375028  0.71194911  0.61043208     0.89100
O626        O  0.27770776  0.56812285  0.63165141    -0.86200
O627        O  0.37824144  0.61979503  0.67160663    -0.86300
O628        O  0.32172066  0.55908810  0.70509316    -0.73400
Mg629      Mg  0.38752960  0.78598580  0.65591269     1.58000
O630        O  0.51125623  0.78364391  0.67159083    -0.80800
H631        H  0.22726162  0.70951761  0.61823634    -0.04500
O632        O  0.23260841  0.59137314  0.69273931    -0.86000
H633        H  0.22398514  0.56731458  0.73967150    -0.04300
H634        H  0.26140241  0.56958011  0.58384716    -0.04500
C635        C  0.23366890  0.59976253  0.72255589     0.89100
C636        C  0.26003936  0.71793578  0.63502739     0.89600
C637        C  0.25364654  0.57609722  0.60886956     0.89700
H638        H  0.40238813  0.60251765  0.71389524    -0.04500
O639        O  0.40752313  0.71782786  0.71876309    -0.73500
Mg640      Mg  0.24140423  0.52554804  0.67729847     1.58000
H641        H  0.36671542  0.74053437  0.74908499    -0.04500
C642        C  0.13929026  0.66207559  0.71043464     0.94700
O643        O  0.11796548  0.52841351  0.66126548    -0.80700
C644        C  0.11429191  0.48306234  0.65957563     0.94700
O645        O  0.37848116  0.85362332  0.67217828    -0.80700
Mg646      Mg  0.44214536  0.70072508  0.67227775     1.58200
O647        O  0.14362476  0.62181427  0.70328795    -0.79100
O648        O  0.44838013  0.60438882  0.61911211    -0.80700
C649        C  0.03887760  0.64256001  0.70969633    -0.11300
C650        C  0.08524113  0.65315057  0.71304856    -0.12800
C651        C  0.54358905  0.66297086  0.61931713    -0.11300
C652        C  0.59046415  0.67605798  0.62331752    -0.12800
C653        C  0.70529614  0.80713649  0.79552824    -0.11300
C654        C  0.72745040  0.78959949  0.77833572    -0.12800
C655        C  0.58546909  0.49606038  0.53173170    -0.11300
C656        C  0.62406309  0.50554149  0.54902470    -0.12800
C657        C  0.89912727  0.53121601  0.55534661    -0.11300
C658        C  0.91873128  0.51208261  0.53740356    -0.12800
C659        C  0.60660402  0.91557676  0.66488622    -0.11300
C660        C  0.56519127  0.87567912  0.67174567    -0.12800
C661        C  0.06267773  0.43715757  0.66536887    -0.11300
C662        C  0.02051985  0.40215907  0.67597953    -0.12800
C663        C  0.71480507  0.91712309  0.80406802    -0.11300
C664        C  0.74217676  0.96076620  0.79114677    -0.12800
C665        C  0.56964773  0.07480653  0.53965046    -0.11300
C666        C  0.60648470  0.10361391  0.55804937    -0.12800
C667        C  0.88094688  0.36222185  0.55327381    -0.11300
C668        C  0.90651959  0.40145678  0.53589000    -0.12800
C669        C  0.00877134  0.81729116  0.78319853    -0.11300
C670        C  0.04957867  0.82953892  0.79911382    -0.12800
C671        C  0.02280970  0.22245120  0.78438201    -0.11300
C672        C  0.06524708  0.24987597  0.79875771    -0.12800
C673        C  0.28361853  0.40567576  0.64125205    -0.11300
C674        C  0.27419076  0.36141537  0.63438065    -0.12800
C675        C  0.34407079  0.90669097  0.68718975    -0.11300
C676        C  0.35023168  0.95091300  0.68881942    -0.12800
C677        C  0.15202880  0.93225469  0.79823900    -0.11300
C678        C  0.16527947  0.96902774  0.77912730    -0.12800
C679        C  0.16970005  0.25284375  0.79252064    -0.11300
C680        C  0.18397614  0.23156543  0.77273336    -0.12800
C681        C  0.43946878  0.07907983  0.54389705    -0.11300
C682        C  0.45871375  0.05602452  0.52950161    -0.12800
C683        C  0.46186220  0.35711893  0.54340592    -0.11300
C684        C  0.47734560  0.39932437  0.52894110    -0.12800
C685        C  0.97555344  0.26117590  0.99517332    -0.11300
C686        C  0.97979484  0.22368379  0.00464372    -0.12800
C687        C  0.04155820  0.75103061  0.99832121    -0.11300
C688        C  0.03442216  0.78667469  0.98859969    -0.12800
C689        C  0.13883177  0.74914886  0.86287106    -0.11300
C690        C  0.12617180  0.70585548  0.87542672    -0.12800
C691        C  0.14684452  0.44292984  0.88252757    -0.11300
C692        C  0.15657970  0.41236485  0.86778665    -0.12800
C693        C  0.22659808  0.24702283  0.03676487    -0.11300
C694        C  0.26319282  0.29224494  0.03928191    -0.12800
C695        C  0.74621059  0.71470193  0.96092504    -0.11300
C696        C  0.78301113  0.76002743  0.96219689    -0.12800
C697        C  0.54947830  0.73010452  0.86834473    -0.11300
C698        C  0.52687572  0.69133475  0.88605315    -0.12800
C699        C  0.29014854  0.41940910  0.89060634    -0.11300
C700        C  0.25211204  0.39864669  0.87192794    -0.12800
C701        C  0.74439811  0.02735071  0.94794071    -0.11300
C702        C  0.78186803  0.01949964  0.94478864    -0.12800
C703        C  0.22668941  0.99048623  0.05482793    -0.11300
C704        C  0.26550779  0.98498083  0.05163203    -0.12800
C705        C  0.27617551  0.88071414  0.89187062    -0.11300
C706        C  0.23590833  0.86239908  0.87426792    -0.12800
C707        C  0.52211661  0.84551435  0.88415817    -0.11300
C708        C  0.54826111  0.83153682  0.86814647    -0.12800
C709        C  0.87543467  0.57302879  0.11378881    -0.11300
C710        C  0.86414588  0.60260839  0.12841505    -0.12800
C711        C  0.72379362  0.58647119  0.10816727    -0.11300
C712        C  0.76359853  0.60880365  0.12550328    -0.12800
C713        C  0.63364995  0.07888156  0.29494814    -0.11300
C714        C  0.62749275  0.03435419  0.29554161    -0.12800
C715        C  0.73633674  0.63443841  0.37213711    -0.11300
C716        C  0.72833026  0.58918291  0.37045759    -0.12800
C717        C  0.54704284  0.90351309  0.44955638    -0.11300
C718        C  0.52690588  0.92281957  0.46673229    -0.12800
C719        C  0.53468537  0.63563160  0.44866897    -0.11300
C720        C  0.51909702  0.59449405  0.46434166    -0.12800
C721        C  0.82504988  0.77681253  0.22218357    -0.11300
C722        C  0.84172686  0.75759076  0.20257218    -0.12800
C723        C  0.43786186  0.11603260  0.37445616    -0.11300
C724        C  0.39266242  0.07801644  0.37457080    -0.12800
C725        C  0.92264740  0.55035993  0.28686201    -0.11300
C726        C  0.96841101  0.58738941  0.28597129    -0.12800
C727        C  0.06482987  0.57604384  0.45770012    -0.11300
C728        C  0.09030774  0.61534904  0.44039044    -0.12800
C729        C  0.37360574  0.86676593  0.44616086    -0.11300
C730        C  0.41269609  0.89684683  0.46270534    -0.12800
C731        C  0.94889193  0.76700696  0.19696092    -0.11300
C732        C  0.98992383  0.79575080  0.21247804    -0.12800
C733        C  0.87822779  0.26483936  0.13402489    -0.11300
C734        C  0.89465378  0.30887632  0.12116865    -0.12800
C735        C  0.77335313  0.15623397  0.12420124    -0.11300
C736        C  0.73400613  0.13920354  0.10605273    -0.12800
C737        C  0.84391339  0.07307101  0.20060399    -0.11300
C738        C  0.83095627  0.03511869  0.21889756    -0.12800
C739        C  0.47919196  0.31445123  0.11543084    -0.11300
C740        C  0.45465209  0.27579910  0.13298086    -0.12800
C741        C  0.45974701  0.17760671  0.13523586    -0.11300
C742        C  0.48699497  0.16684099  0.11788645    -0.12800
C743        C  0.27226615  0.05107327  0.22047816    -0.11300
C744        C  0.29786845  0.09189110  0.20444704    -0.12800
C745        C  0.45343897  0.34849428  0.35361038    -0.11300
C746        C  0.40711383  0.33565905  0.35723044    -0.12800
C747        C  0.90568782  0.31793926  0.31033745    -0.11300
C748        C  0.95176333  0.33016802  0.30688063    -0.12800
C749        C  0.05872284  0.46820284  0.46002254    -0.11300
C750        C  0.08332672  0.45158748  0.44446485    -0.12800
C751        C  0.36990066  0.49091840  0.44911407    -0.11300
C752        C  0.40961269  0.49990684  0.46504107    -0.12800
C753        C  0.98924797  0.17621673  0.21468022    -0.11300
C754        C  0.95054029  0.16860279  0.19828132    -0.12800
C755        C  0.27128857  0.21166816  0.21985823    -0.11300
C756        C  0.29626675  0.19605772  0.20389395    -0.12800
loop_ 
_geom_bond_atom_site_label_1 
_geom_bond_atom_site_label_2 
_geom_bond_distance 
_geom_bond_site_symmetry_2 
_ccdc_geom_bond_type 
O1           Mg3   2.182       .  S
O1           Mg9   2.149       .  S
O1           C36   1.234       .  S
C2           O15   1.232       .  S
C2           O39   1.265       .  A
C2           H41   1.081       .  S
Mg3          O32   2.152       .  S
Mg3          O47   2.254       .  S
Mg3          O43   2.263       .  S
Mg3          O14   2.288       .  S
O4          Mg46   2.157       .  S
O4          Mg29   2.148       .  S
O4           C25   1.239       .  S
O5           C36   1.270       .  A
O5          Mg29   2.313       .  S
C6            O8   1.278       .  A
C6           O20   1.266       .  A
C6          C751   1.445       .  S
O7           C35   1.274       .  A
O7           Mg9   2.313       .  S
O8          Mg40   2.331       .  S
Mg9          O15   2.119       .  S
Mg9          O23   2.202       .  S
Mg9          O11   2.244       .  S
C10          O48   1.258       .  A
C10          O16   1.265       .  A
C10         C746   1.420       .  S
O11          C18   1.264       .  A
H12          C25   1.081       .  S
C13          O27   1.234       .  S
C13          O28   1.270       .  A
C13          H38   1.081       .  S
O14          C37   1.266       .  A
O15         Mg29   2.171       .  S
O16         Mg46   2.259       .  S
C17          O30   1.272       .  A
C17          O22   1.281       .  A
C17         C755   1.449       .  S
C18          O45   1.277       .  A
C18         C753   1.439   1_455  S
Mg19         O26   2.130       .  S
Mg19         O27   2.151       .  S
Mg19         O20   2.254       .  S
Mg19         O21   2.317       .  S
Mg19         O48   2.214       .  S
O21          C25   1.275       .  A
O22         Mg29   2.354       .  S
O23          C42   1.256       .  A
O24          C44   1.283       .  A
O24         Mg40   2.370       .  S
O26         Mg40   2.178       .  S
O26          C37   1.233       .  S
O27         Mg46   2.187       .  S
O28         Mg40   2.314       .  S
Mg29         O45   2.323       .  S
O30         Mg46   2.265       .  S
H31          C36   1.081       .  S
O32         Mg40   2.143       .  S
O32          C35   1.239       .  S
H33          C35   1.081       .  S
H34          C37   1.081       .  S
O39         Mg46   2.286       .  S
C42          O47   1.264       .  A
C42         C748   1.414   1_455  S
O43          C44   1.271       .  A
C44         C750   1.453       .  S
C49         C744   1.457       .  S
C49          C50   1.419       .  A
C49          C54   1.410       .  A
C50         C756   1.456       .  S
C50          C51   1.406       .  A
C51          H56   1.085       .  S
C51          C52   1.404       .  A
C52         C740   1.446       .  S
C52          C53   1.403       .  A
C53         C741   1.452       .  S
C53          C54   1.407       .  A
C54          H55   1.085       .  S
C57         C737   1.457       .  S
C57          C58   1.404       .  A
C57          C62   1.406       .  A
C58         C754   1.455       .  S
C58          C59   1.411       .  A
C59          H64   1.085       .  S
C59          C60   1.414       .  A
C60         C733   1.471       .  S
C60          C61   1.427       .  A
C61         C735   1.463       .  S
C61          C62   1.412       .  A
C62          H63   1.085       .  S
O65         Mg67   2.165       .  S
O65         Mg73   2.150       .  S
O65         C100   1.236       .  S
C66          O79   1.232       .  S
C66         O103   1.266       .  A
C66         H105   1.081       .  S
Mg67         O96   2.165       .  S
Mg67        O111   2.298   1_565  S
Mg67        O107   2.258   1_565  S
Mg67         O78   2.288       .  S
O68        Mg110   2.167       .  S
O68         Mg93   2.159       .  S
O68          C89   1.238       .  S
O69         C100   1.272       .  A
O69         Mg93   2.311       .  S
C70          O72   1.281       .  A
C70          O84   1.266       .  A
C70         C732   1.448   1_455  S
O71          C99   1.273       .  A
O71         Mg73   2.306       .  S
O72        Mg104   2.346       .  S
Mg73         O79   2.129       .  S
Mg73         O87   2.236       .  S
Mg73         O75   2.257       .  S
C74         O112   1.264       .  A
C74          O80   1.271       .  A
C74         C726   1.432   1_455  S
O75          C82   1.267       .  A
H76          C89   1.081       .  S
C77          O91   1.236       .  S
C77          O92   1.271       .  A
C77         H102   1.081       .  S
O78         C101   1.266       .  A
O79         Mg93   2.169       .  S
O80        Mg110   2.292       .  S
C81          O94   1.272       .  A
C81          O86   1.284       .  A
C81         C728   1.451       .  S
C82         O109   1.279       .  A
C82         C729   1.444       .  S
Mg83         O90   2.138       .  S
Mg83         O91   2.155       .  S
Mg83         O84   2.253       .  S
Mg83         O85   2.300       .  S
Mg83        O112   2.242       .  S
O85          C89   1.272       .  A
O86         Mg93   2.372       .  S
O87         C106   1.263   1_565  A
O88         C108   1.284   1_565  A
O88        Mg104   2.371       .  S
O90        Mg104   2.173       .  S
O90         C101   1.233       .  S
O91        Mg110   2.162       .  S
O92        Mg104   2.305       .  S
Mg93        O109   2.337       .  S
O94        Mg110   2.262       .  S
H95         C100   1.081       .  S
O96        Mg104   2.167       .  S
O96          C99   1.238       .  S
H97          C99   1.081       .  S
H98         C101   1.081       .  S
O103       Mg110   2.285       .  S
C106        O111   1.271       .  A
C106        C724   1.430       .  S
O107        C108   1.271       .  A
C108        C743   1.450       .  S
O113       Mg115   2.160       .  S
O113       Mg121   2.149       .  S
O113        C148   1.235       .  S
C114        O127   1.235       .  S
C114        O151   1.268       .  A
C114        H153   1.081       .  S
Mg115       O144   2.168       .  S
Mg115       O159   2.304       .  S
Mg115       O155   2.255       .  S
Mg115       O126   2.285       .  S
O116       Mg158   2.161       .  S
O116       Mg141   2.162       .  S
O116        C137   1.237       .  S
O117        C148   1.271       .  A
O117       Mg141   2.307       .  S
C118        O120   1.277       .  A
C118        O132   1.270       .  A
C118        C738   1.446   1_565  S
O119        C147   1.273       .  A
O119       Mg121   2.309       .  S
O120       Mg152   2.321       .  S
Mg121       O127   2.138       .  S
Mg121       O135   2.244       .  S
Mg121       O123   2.281       .  S
C122        O160   1.264       .  A
C122        O128   1.274       .  A
C122        C714   1.428   1_565  S
O123        C130   1.270       .  A
H124        C137   1.081       .  S
C125        O139   1.235       .  S
C125        O140   1.269       .  A
C125        H150   1.081       .  S
O126        C149   1.266       .  A
O127       Mg141   2.169       .  S
O128       Mg158   2.307       .  S
C129        O142   1.271       .  A
C129        O134   1.280       .  A
C129        C717   1.443       .  S
C130        O157   1.277       .  A
C130        C719   1.446       .  S
Mg131       O138   2.119       .  S
Mg131       O139   2.157       .  S
Mg131       O132   2.279       .  S
Mg131       O133   2.300       .  S
Mg131       O160   2.225       .  S
O133        C137   1.271       .  A
O134       Mg141   2.346       .  S
O135        C154   1.266       .  A
O136        C156   1.275       .  A
O136       Mg152   2.311       .  S
O138       Mg152   2.161       .  S
O138        C149   1.233       .  S
O139       Mg158   2.153       .  S
O140       Mg152   2.297       .  S
Mg141       O157   2.321       .  S
O142       Mg158   2.258       .  S
H143        C148   1.081       .  S
O144       Mg152   2.170       .  S
O144        C147   1.237       .  S
H145        C147   1.081       .  S
H146        C149   1.081       .  S
O151       Mg158   2.294       .  S
C154        O159   1.273       .  A
C154        C715   1.434       .  S
O155        C156   1.271       .  A
C156        C721   1.433       .  S
C161        C731   1.460       .  S
C161        C162   1.409       .  A
C161        C166   1.411       .  A
C162        C722   1.441       .  S
C162        C163   1.400       .  A
C163        H168   1.086       .  S
C163        C164   1.399       .  A
C164        C712   1.449       .  S
C164        C165   1.412       .  A
C165        C710   1.455       .  S
C165        C166   1.413       .  A
C166        H167   1.085       .  S
O169       Mg171   2.178   1_544  S
O169       Mg177   2.165       .  S
O169        C204   1.238       .  S
C170        O183   1.232       .  S
C170        O207   1.266   1_545  A
C170        H209   1.081   1_545  S
Mg171       O200   2.165       .  S
Mg171       O215   2.322   1_556  S
Mg171       O211   2.307       .  S
Mg171       O182   2.296   1_565  S
O172       Mg214   2.172       .  S
O172       Mg197   2.161       .  S
O172        C193   1.237   1_554  S
O173        C204   1.274       .  A
O173       Mg197   2.315       .  S
C174        O176   1.277       .  A
C174        O188   1.265       .  A
C174        C707   1.440       .  S
O175        C203   1.270       .  A
O175       Mg177   2.291   1_565  S
O176       Mg208   2.322       .  S
Mg177       O183   2.155       .  S
Mg177       O191   2.255       .  S
Mg177       O179   2.238       .  S
C178        O216   1.267       .  A
C178        O184   1.277       .  A
C178        C701   1.447       .  S
O179        C186   1.264       .  A
H180        C193   1.082       .  S
C181        O195   1.238       .  S
C181        O196   1.274       .  A
C181        H206   1.081   1_556  S
O182        C205   1.267       .  A
O183       Mg197   2.170       .  S
O184       Mg214   2.330   1_556  S
C185        O198   1.278       .  A
C185        O190   1.284       .  A
C185        C736   1.460       .  S
C186        O213   1.277       .  A
C186        C742   1.437       .  S
Mg187       O194   2.163       .  S
Mg187       O195   2.161       .  S
Mg187       O188   2.247       .  S
Mg187       O189   2.302   1_565  S
Mg187       O216   2.261   1_565  S
O189        C193   1.271       .  A
O190       Mg197   2.371       .  S
O191        C210   1.266   1_545  A
O192        C212   1.286       .  A
O192       Mg208   2.386       .  S
O194       Mg208   2.176       .  S
O194        C205   1.233   1_565  S
O195       Mg214   2.182   1_566  S
O196       Mg208   2.320       .  S
Mg197       O213   2.325       .  S
O198       Mg214   2.301       .  S
H199        C204   1.081   1_556  S
O200       Mg208   2.148       .  S
O200        C203   1.237   1_556  S
H201        C203   1.081       .  S
H202        C205   1.081       .  S
O207       Mg214   2.293   1_565  S
C210        O215   1.276       .  A
C210        C704   1.442       .  S
O211        C212   1.278       .  A
C212        C705   1.466       .  S
O217       Mg219   2.163   1_556  S
O217       Mg225   2.148       .  S
O217        C252   1.235       .  S
C218        O231   1.234       .  S
C218        O255   1.267       .  A
C218        H257   1.081       .  S
Mg219       O248   2.152       .  S
Mg219       O263   2.271   1_554  S
Mg219       O259   2.261       .  S
Mg219       O230   2.286       .  S
O220       Mg262   2.146       .  S
O220       Mg245   2.133       .  S
O220        C241   1.238   1_556  S
O221        C252   1.269       .  A
O221       Mg245   2.303       .  S
C222        O224   1.274       .  A
C222        O236   1.268       .  A
C222        C739   1.433       .  S
O223        C251   1.273       .  A
O223       Mg225   2.309       .  S
O224       Mg256   2.292       .  S
Mg225       O231   2.118       .  S
Mg225       O239   2.220       .  S
Mg225       O227   2.281       .  S
C226        O264   1.263       .  A
C226        O232   1.266       .  A
C226        C694   1.415       .  S
O227        C234   1.270       .  A
H228        C241   1.081       .  S
C229        O243   1.234       .  S
C229        O244   1.269       .  A
C229        H254   1.081   1_554  S
O230        C253   1.266       .  A
O231       Mg245   2.167       .  S
O232       Mg262   2.265   1_554  S
C233        O246   1.270       .  A
C233        O238   1.274       .  A
C233        C699   1.436       .  S
C234        O261   1.271       .  A
C234        C698   1.435       .  S
Mg235       O242   2.123       .  S
Mg235       O243   2.144       .  S
Mg235       O236   2.264       .  S
Mg235       O237   2.304       .  S
Mg235       O264   2.224       .  S
O237        C241   1.272       .  A
O238       Mg245   2.313       .  S
O239        C258   1.263       .  A
O240        C260   1.276       .  A
O240       Mg256   2.329       .  S
O242       Mg256   2.172       .  S
O242        C253   1.233       .  S
O243       Mg262   2.156   1_554  S
O244       Mg256   2.301       .  S
Mg245       O261   2.280       .  S
O246       Mg262   2.258       .  S
H247        C252   1.081   1_554  S
O248       Mg256   2.144       .  S
O248        C251   1.238   1_554  S
H249        C251   1.081       .  S
H250        C253   1.081       .  S
O255       Mg262   2.284       .  S
C258        O263   1.267       .  A
C258        C695   1.416       .  S
O259        C260   1.270       .  A
C260        C711   1.441       .  S
O265       Mg267   2.170   1_456  S
O265       Mg273   2.136       .  S
O265        C300   1.232       .  S
C266        O279   1.236   1_655  S
C266        O303   1.269       .  A
C266        H305   1.081       .  S
Mg267       O296   2.139       .  S
Mg267       O311   2.251       .  S
Mg267       O307   2.231       .  S
Mg267       O278   2.295   1_655  S
O268       Mg310   2.139       .  S
O268       Mg293   2.149       .  S
O268        C289   1.240       .  S
O269        C300   1.268       .  A
O269       Mg293   2.307       .  S
C270        O272   1.281       .  A
C270        O284   1.272       .  A
C270        C709   1.445       .  S
O271        C299   1.276       .  A
O271       Mg273   2.325   1_655  S
O272       Mg304   2.324       .  S
Mg273       O279   2.161       .  S
Mg273       O287   2.297   1_455  S
Mg273       O275   2.278       .  S
C274        O312   1.267       .  A
C274        O280   1.258   1_554  A
C274        C687   1.436   1_554  S
O275        C282   1.271       .  A
H276        C289   1.081       .  S
C277        O291   1.231       .  S
C277        O292   1.268       .  A
C277        H302   1.081   1_554  S
O278        C301   1.270       .  A
O279       Mg293   2.195       .  S
O280       Mg310   2.247       .  S
C281        O294   1.262       .  A
C281        O286   1.286       .  A
C281        C690   1.453       .  S
C282        O309   1.281       .  A
C282        C691   1.443       .  S
Mg283       O290   2.166   1_455  S
Mg283       O291   2.135   1_455  S
Mg283       O284   2.282   1_455  S
Mg283       O285   2.331       .  S
Mg283       O312   2.301       .  S
O285        C289   1.277   1_554  A
O286       Mg293   2.406       .  S
O287        C306   1.267       .  A
O288        C308   1.287       .  A
O288       Mg304   2.412       .  S
O290       Mg304   2.200       .  S
O290        C301   1.237   1_655  S
O291       Mg310   2.167   1_654  S
O292       Mg304   2.308       .  S
Mg293       O309   2.322       .  S
O294       Mg310   2.211       .  S
H295        C300   1.081   1_554  S
O296       Mg304   2.149       .  S
O296        C299   1.240   1_554  S
H297        C299   1.081   1_554  S
H298        C301   1.081       .  S
O303       Mg310   2.292   1_655  S
C306        O311   1.259   1_556  A
C306        C685   1.435       .  S
O307        C308   1.264       .  A
C308        C734   1.462       .  S
O313       Mg315   2.165       .  S
O313       Mg321   2.153       .  S
O313        C348   1.233       .  S
C314        O327   1.236       .  S
C314        O351   1.269       .  A
C314        H353   1.081       .  S
Mg315       O344   2.152       .  S
Mg315       O359   2.268       .  S
Mg315       O355   2.248       .  S
Mg315       O326   2.284       .  S
O316       Mg358   2.138       .  S
O316       Mg341   2.140       .  S
O316        C337   1.240       .  S
O317        C348   1.267       .  A
O317       Mg341   2.300       .  S
C318        O320   1.279       .  A
C318        O332   1.270       .  A
C318        C683   1.446       .  S
O319        C347   1.273       .  A
O319       Mg321   2.309       .  S
O320       Mg352   2.325       .  S
Mg321       O327   2.120       .  S
Mg321       O335   2.219       .  S
Mg321       O323   2.296       .  S
C322        O360   1.261       .  A
C322        O328   1.261       .  A
C322        C674   1.416       .  S
O323        C330   1.272       .  A
H324        C337   1.081       .  S
C325        O339   1.233       .  S
C325        O340   1.268       .  A
C325        H350   1.081       .  S
O326        C349   1.267       .  A
O327       Mg341   2.170       .  S
O328       Mg358   2.251       .  S
C329        O342   1.268       .  A
C329        O334   1.273       .  A
C329        C680   1.436       .  S
C330        O357   1.272       .  A
C330        C678   1.439   1_545  S
Mg331       O338   2.122       .  S
Mg331       O339   2.141       .  S
Mg331       O332   2.278       .  S
Mg331       O333   2.327       .  S
Mg331       O360   2.234       .  S
O333        C337   1.277       .  A
O334       Mg341   2.313       .  S
O335        C354   1.263   1_545  A
O336        C356   1.281       .  A
O336       Mg352   2.354       .  S
O338       Mg352   2.178       .  S
O338        C349   1.234       .  S
O339       Mg358   2.165       .  S
O340       Mg352   2.303       .  S
Mg341       O357   2.280       .  S
O342       Mg358   2.254       .  S
H343        C348   1.081   1_565  S
O344       Mg352   2.155       .  S
O344        C347   1.238       .  S
H345        C347   1.081       .  S
H346        C349   1.081       .  S
O351       Mg358   2.291       .  S
C354        O359   1.267   1_565  A
C354        C676   1.416       .  S
O355        C356   1.269       .  A
C356        C681   1.444       .  S
C361        C692   1.454       .  S
C361        C362   1.410       .  A
C361        C366   1.409       .  A
C362        C700   1.444       .  S
C362        C363   1.400       .  A
C363        H368   1.086       .  S
C363        C364   1.400       .  A
C364        C679   1.444       .  S
C364        C365   1.410       .  A
C365        C672   1.454       .  S
C365        C366   1.409       .  A
C366        H367   1.085       .  S
C369        C689   1.463       .  S
C369        C370   1.426       .  A
C369        C374   1.416       .  A
C370        C706   1.471       .  S
C370        C371   1.409       .  A
C371        H376   1.085       .  S
C371        C372   1.408       .  A
C372        C677   1.448       .  S
C372        C373   1.407       .  A
C373        C670   1.466       .  S
C373        C374   1.410       .  A
C374        H375   1.085       .  S
O377       Mg379   2.177       .  S
O377       Mg385   2.142       .  S
O377        C412   1.231       .  S
C378        O391   1.237       .  S
C378        O415   1.270       .  A
C378        H417   1.081       .  S
Mg379       O408   2.137       .  S
Mg379       O423   2.230       .  S
Mg379       O419   2.241       .  S
Mg379       O390   2.290       .  S
O380       Mg422   2.135       .  S
O380       Mg405   2.143       .  S
O380        C401   1.239       .  S
O381        C412   1.267       .  A
O381       Mg405   2.303       .  S
C382        O384   1.278       .  A
C382        O396   1.274       .  A
C382        C666   1.446       .  S
O383        C411   1.279       .  A
O383       Mg385   2.338       .  S
O384       Mg416   2.310       .  S
Mg385       O391   2.144       .  S
Mg385       O399   2.278       .  S
Mg385       O387   2.296       .  S
C386        O424   1.265       .  A
C386        O392   1.258       .  A
C386        C659   1.421       .  S
O387        C394   1.273       .  A
H388        C401   1.081       .  S
C389        O403   1.232       .  S
C389        O404   1.268       .  A
C389        H414   1.081       .  S
O390        C413   1.269       .  A
O391       Mg405   2.194       .  S
O392       Mg422   2.242   1_565  S
C393        O406   1.264       .  A
C393        O398   1.282       .  A
C393        C664   1.449   1_545  S
C394        O421   1.279       .  A
C394        C671   1.444   1_655  S
Mg395       O402   2.138       .  S
Mg395       O403   2.139       .  S
Mg395       O396   2.300       .  S
Mg395       O397   2.323       .  S
Mg395       O424   2.267   1_545  S
O397        C401   1.276       .  A
O398       Mg405   2.376       .  S
O399        C418   1.264       .  A
O400        C420   1.282       .  A
O400       Mg416   2.376       .  S
O402       Mg416   2.177       .  S
O402        C413   1.236       .  S
O403       Mg422   2.170       .  S
O404       Mg416   2.307       .  S
Mg405       O421   2.308       .  S
O406       Mg422   2.225       .  S
H407        C412   1.081       .  S
O408       Mg416   2.151       .  S
O408        C411   1.242       .  S
H409        C411   1.081       .  S
H410        C413   1.081       .  S
O415       Mg422   2.290       .  S
C418        O423   1.256       .  A
C418        C662   1.426   1_655  S
O419        C420   1.266       .  A
C420        C667   1.451       .  S
O425       Mg427   2.176       .  S
O425       Mg433   2.163       .  S
O425        C460   1.236       .  S
C426        O439   1.231       .  S
C426        O463   1.265       .  A
C426        H465   1.081       .  S
Mg427       O456   2.177       .  S
Mg427       O471   2.332       .  S
Mg427       O467   2.287       .  S
Mg427       O438   2.294       .  S
O428       Mg470   2.181       .  S
O428       Mg453   2.173       .  S
O428        C449   1.237       .  S
O429        C460   1.272       .  A
O429       Mg453   2.312       .  S
C430        O432   1.282       .  A
C430        O444   1.265       .  A
C430        C669   1.453   1_655  S
O431        C459   1.271       .  A
O431       Mg433   2.301       .  S
O432       Mg464   2.362       .  S
Mg433       O439   2.136       .  S
Mg433       O447   2.223       .  S
Mg433       O435   2.251       .  S
C434        O472   1.264       .  A
C434        O440   1.276       .  A
C434        C649   1.444   1_655  S
O435        C442   1.265       .  A
H436        C449   1.082       .  S
C437        O451   1.236       .  S
C437        O452   1.272       .  A
C437        H462   1.081       .  S
O438        C461   1.267       .  A
O439       Mg453   2.169       .  S
O440       Mg470   2.329       .  S
C441        O454   1.276       .  A
C441        O446   1.282       .  A
C441        C657   1.451       .  S
C442        O469   1.278       .  A
C442        C656   1.448       .  S
Mg443       O450   2.151       .  S
Mg443       O451   2.162       .  S
Mg443       O444   2.250       .  S
Mg443       O445   2.300       .  S
Mg443       O472   2.243       .  S
O445        C449   1.271       .  A
O446       Mg453   2.352       .  S
O447        C466   1.262       .  A
O448        C468   1.285       .  A
O448       Mg464   2.374       .  S
O450       Mg464   2.171       .  S
O450        C461   1.232       .  S
O451       Mg470   2.177       .  S
O452       Mg464   2.313       .  S
Mg453       O469   2.345       .  S
O454       Mg470   2.286       .  S
H455        C460   1.081       .  S
O456       Mg464   2.177       .  S
O456        C459   1.237       .  S
H457        C459   1.082       .  S
H458        C461   1.081       .  S
O463       Mg470   2.290       .  S
C466        O471   1.277       .  A
C466        C652   1.439       .  S
O467        C468   1.276       .  A
C468        C654   1.456       .  S
C473        C697   1.445       .  S
C473        C474   1.405       .  A
C473        C478   1.405       .  A
C474        C708   1.453       .  S
C474        C475   1.405       .  A
C475        H480   1.085       .  S
C475        C476   1.410       .  A
C476        C663   1.457       .  S
C476        C477   1.422       .  A
C477        C653   1.461       .  S
C477        C478   1.407       .  A
C478        H479   1.085       .  S
C481        C749   1.460       .  S
C481        C482   1.417       .  A
C481        C486   1.408   1_455  A
C482        C727   1.458       .  S
C482        C483   1.407   1_455  A
C483        H488   1.085       .  S
C483        C484   1.407       .  A
C484        C658   1.458       .  S
C484        C485   1.418       .  A
C485        C668   1.460       .  S
C485        C486   1.409       .  A
C486        H487   1.085       .  S
C489        C752   1.459       .  S
C489        C490   1.410       .  A
C489        C494   1.411       .  A
C490        C720   1.456       .  S
C490        C491   1.411       .  A
C491        H496   1.085       .  S
C491        C492   1.411       .  A
C492        C655   1.460       .  S
C492        C493   1.411       .  A
C493        C684   1.457       .  S
C493        C494   1.411       .  A
C494        H495   1.085       .  S
C497        C718   1.452       .  S
C497        C498   1.412       .  A
C497        C502   1.407       .  A
C498        C730   1.456       .  S
C498        C499   1.408       .  A
C499        H504   1.085       .  S
C499        C500   1.407   1_565  A
C500        C682   1.453       .  S
C500        C501   1.412       .  A
C501        C665   1.456       .  S
C501        C502   1.408   1_545  A
C502        H503   1.085   1_565  S
O505       Mg507   2.124   1_566  S
O505       Mg513   2.137   1_556  S
O505        C540   1.237       .  S
C506        O519   1.232       .  S
C506        O543   1.267       .  A
C506        H545   1.081       .  S
Mg507       O536   2.182       .  S
Mg507       O551   2.342       .  S
Mg507       O547   2.251       .  S
Mg507       O518   2.304   1_554  S
O508       Mg550   2.188       .  S
O508       Mg533   2.170       .  S
O508        C529   1.235       .  S
O509        C540   1.272       .  A
O509       Mg533   2.310   1_455  S
C510        O512   1.267   1_655  A
C510        O524   1.260       .  A
C510        C686   1.435       .  S
O511        C539   1.270   1_565  A
O511       Mg513   2.301       .  S
O512       Mg544   2.290       .  S
Mg513       O519   2.141   1_455  S
Mg513       O527   2.219       .  S
Mg513       O515   2.255   1_554  S
C514        O552   1.263       .  A
C514        O520   1.280   1_545  A
C514        C702   1.445       .  S
O515        C522   1.261       .  A
H516        C529   1.081       .  S
C517        O531   1.237       .  S
C517        O532   1.272       .  A
C517        H542   1.081   1_545  S
O518        C541   1.267       .  A
O519       Mg533   2.138   1_554  S
O520       Mg550   2.357       .  S
C521        O534   1.273       .  A
C521        O526   1.268       .  A
C521        C696   1.419       .  S
C522        O549   1.270   1_455  A
C522        C688   1.436       .  S
Mg523       O530   2.149   1_655  S
Mg523       O531   2.141   1_556  S
Mg523       O524   2.256   1_556  S
Mg523       O525   2.298       .  S
Mg523       O552   2.221       .  S
O525        C529   1.270   1_545  A
O526       Mg533   2.257       .  S
O527        C546   1.262       .  A
O528        C548   1.267       .  A
O528       Mg544   2.254       .  S
O530       Mg544   2.141   1_556  S
O530        C541   1.232       .  S
O531       Mg550   2.127   1_544  S
O532       Mg544   2.310   1_655  S
Mg533       O549   2.301       .  S
O534       Mg550   2.259       .  S
H535        C540   1.081   1_545  S
O536       Mg544   2.166       .  S
O536        C539   1.236       .  S
H537        C539   1.081       .  S
H538        C541   1.081       .  S
O543       Mg550   2.300   1_554  S
C546        O551   1.278   1_565  A
C546        C703   1.440       .  S
O547        C548   1.271       .  A
C548        C693   1.418       .  S
O553       Mg555   2.126       .  S
O553       Mg561   2.168       .  S
O553        C588   1.236       .  S
C554        O567   1.237       .  S
C554        O591   1.271       .  A
C554        H593   1.081       .  S
Mg555       O584   2.137       .  S
Mg555       O599   2.284       .  S
Mg555       O595   2.266       .  S
Mg555       O566   2.301       .  S
O556       Mg598   2.137       .  S
O556       Mg581   2.103       .  S
O556        C577   1.233       .  S
O557        C588   1.268       .  A
O557       Mg581   2.286       .  S
C558        O560   1.258       .  A
C558        O572   1.275       .  A
C558        C745   1.416       .  S
O559        C587   1.265       .  A
O559       Mg561   2.284       .  S
O560       Mg592   2.166       .  S
Mg561       O567   2.157       .  S
Mg561       O575   2.277       .  S
Mg561       O563   2.306       .  S
C562        O600   1.276       .  A
C562        O568   1.273       .  A
C562        C716   1.436       .  S
O563        C570   1.273       .  A
H564        C577   1.081       .  S
C565        O579   1.236       .  S
C565        O580   1.269       .  A
C565        H590   1.081       .  S
O566        C589   1.271       .  A
O567       Mg581   2.158       .  S
O568       Mg598   2.295       .  S
C569        O582   1.271       .  A
C569        O574   1.266       .  A
C569        C725   1.433       .  S
C570        O597   1.257       .  A
C570        C747   1.411       .  S
Mg571       O578   2.158       .  S
Mg571       O579   2.170       .  S
Mg571       O572   2.319       .  S
Mg571       O573   2.285       .  S
Mg571       O600   2.284       .  S
O573        C577   1.265       .  A
O574       Mg581   2.270       .  S
O575        C594   1.275       .  A
O576        C596   1.266       .  A
O576       Mg592   2.272       .  S
O578       Mg592   2.158       .  S
O578        C589   1.237       .  S
O579       Mg598   2.131       .  S
O580       Mg592   2.286       .  S
Mg581       O597   2.161       .  S
O582       Mg598   2.276       .  S
H583        C588   1.081       .  S
O584       Mg592   2.105       .  S
O584        C587   1.233       .  S
H585        C587   1.081       .  S
H586        C589   1.081       .  S
O591       Mg598   2.305       .  S
C594        O599   1.271       .  A
C594        C713   1.430       .  S
O595        C596   1.269       .  A
C596        C723   1.431       .  S
O601       Mg603   2.119       .  S
O601       Mg609   2.140       .  S
O601        C636   1.231       .  S
C602        O615   1.239       .  S
C602        O639   1.275       .  A
C602        H641   1.081       .  S
Mg603       O632   2.134       .  S
Mg603       O647   2.265       .  S
Mg603       O643   2.198       .  S
Mg603       O614   2.309       .  S
O604       Mg646   2.123       .  S
O604       Mg629   2.120       .  S
O604        C625   1.235       .  S
O605        C636   1.264       .  A
O605       Mg629   2.288       .  S
C606        O608   1.264       .  A
C606        O620   1.276       .  A
C606        C673   1.417       .  S
O607        C635   1.270       .  A
O607       Mg609   2.312       .  S
O608       Mg640   2.202       .  S
Mg609       O615   2.168       .  S
Mg609       O623   2.329       .  S
Mg609       O611   2.309       .  S
C610        O648   1.275       .  A
C610        O616   1.259       .  A
C610        C651   1.439       .  S
O611        C618   1.276       .  A
H612        C625   1.081       .  S
C613        O627   1.231       .  S
C613        O628   1.264       .  A
C613        H638   1.081       .  S
O614        C637   1.273       .  A
O615       Mg629   2.179       .  S
O616       Mg646   2.253       .  S
C617        O630   1.258       .  A
C617        O622   1.267       .  A
C617        C660   1.421       .  S
C618        O645   1.263       .  A
C618        C675   1.418       .  S
Mg619       O626   2.169       .  S
Mg619       O627   2.135       .  S
Mg619       O620   2.303       .  S
Mg619       O621   2.310       .  S
Mg619       O648   2.332       .  S
O621        C625   1.270       .  A
O622       Mg629   2.280       .  S
O623        C642   1.276       .  A
O624        C644   1.269       .  A
O624       Mg640   2.291       .  S
O626       Mg640   2.181       .  S
O626        C637   1.238       .  S
O627       Mg646   2.117       .  S
O628       Mg640   2.288       .  S
Mg629       O645   2.197       .  S
O630       Mg646   2.204       .  S
H631        C636   1.081       .  S
O632       Mg640   2.133       .  S
O632        C635   1.235       .  S
H633        C635   1.081       .  S
H634        C637   1.081       .  S
O639       Mg646   2.312       .  S
C642        O647   1.262       .  A
C642        C650   1.444       .  S
O643        C644   1.258       .  A
C644        C661   1.423       .  S
C649        C650   1.212       .  T
C651        C652   1.210       .  T
C653        C654   1.218       .  T
C655        C656   1.215       .  T
C657        C658   1.216       .  T
C659        C660   1.198       .  T
C661        C662   1.201       .  T
C663        C664   1.216       .  T
C665        C666   1.213       .  T
C667        C668   1.217       .  T
C669        C670   1.219       .  T
C671        C672   1.212       .  T
C673        C674   1.196       .  T
C675        C676   1.196       .  T
C677        C678   1.208       .  T
C679        C680   1.207       .  T
C681        C682   1.212       .  T
C683        C684   1.214       .  T
C685        C686   1.206   1_556  T
C687        C688   1.207       .  T
C689        C690   1.219       .  T
C691        C692   1.212       .  T
C693        C694   1.195       .  T
C695        C696   1.196       .  T
C697        C698   1.206       .  T
C699        C700   1.207       .  T
C701        C702   1.213       .  T
C703        C704   1.210       .  T
C705        C706   1.224       .  T
C707        C708   1.211       .  T
C709        C710   1.213       .  T
C711        C712   1.210       .  T
C713        C714   1.203       .  T
C715        C716   1.206       .  T
C717        C718   1.211       .  T
C719        C720   1.213       .  T
C721        C722   1.205       .  T
C723        C724   1.204       .  T
C725        C726   1.205       .  T
C727        C728   1.216       .  T
C729        C730   1.213       .  T
C731        C732   1.216       .  T
C733        C734   1.224       .  T
C735        C736   1.220       .  T
C737        C738   1.213       .  T
C739        C740   1.206       .  T
C741        C742   1.210       .  T
C743        C744   1.215       .  T
C745        C746   1.197       .  T
C747        C748   1.194       .  T
C749        C750   1.217       .  T
C751        C752   1.214       .  T
C753        C754   1.212       .  T
C755        C756   1.214       .  T
