geometry optimzed in LAMMPS
_audit_creation_date              2020-11-30 
_audit_creation_method            'lammps2cif' 
_symmetry_space_group_name_H-M    'P1' 
_symmetry_Int_Tables_number       1 
_symmetry_cell_setting            triclinic 
loop_ 
_symmetry_equiv_pos_as_xyz 
  x,y,z 
_cell_length_a                    34.6015932 
_cell_length_b                    34.600879781370914 
_cell_length_c                    34.59609122318938 
_cell_angle_alpha                 90.04684815791562 
_cell_angle_beta                  89.96232071866685 
_cell_angle_gamma                 90.03862275164566 
loop_ 
_atom_site_label 
_atom_site_type_symbol 
_atom_site_fract_x 
_atom_site_fract_y 
_atom_site_fract_z 
_atom_site_charge 
O1          O  0.50278077  0.39786640  0.06290042    -0.72700
O2          O  0.50267487  0.44324542  0.11109031    -0.51600
C3          C  0.50316154  0.40799508  0.09844020     0.81000
O4          O  0.60771223  0.50953228  0.93651861    -0.57300
O5          O  0.56170719  0.50889823  0.88898036    -0.50300
C6          C  0.59718487  0.50950689  0.90108576     0.73000
O7          O  0.60894242  0.50632385  0.06262376    -0.71900
O8          O  0.56349135  0.50733711  0.11077942    -0.52400
C9          C  0.59877556  0.50658226  0.09820729     0.79000
O10         O  0.50024992  0.39765172  0.93758498    -0.57000
O11         O  0.50070853  0.44341965  0.88984739    -0.50100
C12         C  0.50089353  0.40804046  0.90213193     0.75600
Zr13       Zr  0.50098799  0.42748733  0.00022002     2.54700
O14         O  0.55614901  0.38393579  0.99831246    -0.77600
O15         O  0.45074543  0.37817614  0.99976824    -0.91000
Zr16       Zr  0.57906459  0.50839949  0.99988131     2.64700
O17         O  0.62768989  0.45748985  0.99933051    -0.95900
O18         O  0.62430305  0.56235503  0.00032528    -0.78000
O19         O  0.54079672  0.46728327  0.03882931    -0.81400
O20         O  0.54023470  0.46745432  0.96134464    -2.16100
O21         O  0.38971680  0.49964651  0.93868263    -0.64700
O22         O  0.43499875  0.50149455  0.89042661    -0.49300
C23         C  0.39983170  0.49873514  0.90309558     0.74000
O24         O  0.49594928  0.61537477  0.06378112    -0.57700
O25         O  0.49769669  0.56973864  0.11162612    -0.49600
C26         C  0.49631760  0.60504675  0.09926734     0.75800
O27         O  0.49751292  0.61560414  0.93813546    -0.69100
O28         O  0.49655857  0.57012300  0.89004213    -0.47700
C29         C  0.49667895  0.60537419  0.90263803     0.77200
O30         O  0.39084801  0.50253593  0.06492654    -0.64400
O31         O  0.43705838  0.50230500  0.11228095    -0.51600
C32         C  0.40157484  0.50121816  0.10031667     0.75600
Zr33       Zr  0.41941006  0.50541123  0.00141149     2.77500
O34         O  0.37185392  0.55733694  0.00175858    -0.95100
O35         O  0.37239964  0.45301622  0.00185069    -0.76000
Zr36       Zr  0.49817748  0.58612288  0.00084579     2.70100
O37         O  0.44920332  0.63657148  0.99997535    -0.77200
O38         O  0.55254819  0.63082075  0.00156785    -0.96300
Zr39       Zr  0.49986589  0.50658402  0.07822233     2.21500
Zr40       Zr  0.49855899  0.50684769  0.92289664     2.11100
O41         O  0.45758305  0.54656655  0.96236946    -2.45000
O42         O  0.45831976  0.54647334  0.03990074    -0.77000
O43         O  0.45939304  0.46602362  0.96237934    -0.69200
O44         O  0.53950470  0.54783847  0.03923944    -2.30100
O45         O  0.45997898  0.46563330  0.03926691    -2.26400
O46         O  0.53869032  0.54784162  0.96145094    -0.70900
H47         H  0.55653823  0.45159066  0.94515794     0.81100
H48         H  0.55548676  0.56430949  0.05515631     0.82100
H49         H  0.44090841  0.56239425  0.94656155     0.84400
H50         H  0.44439092  0.44885051  0.05522100     0.82000
H51         H  0.61983951  0.57593698  0.97554981     0.45000
H52         H  0.56653488  0.62571968  0.97712064     0.44000
H53         H  0.42454809  0.62270914  0.00431224     0.43700
H54         H  0.37100691  0.56683997  0.97478622     0.41600
H55         H  0.38420191  0.43258005  0.98564058     0.44700
H56         H  0.43359850  0.38484372  0.02169759     0.39500
H57         H  0.54485960  0.35819908  0.99289055     0.45600
H58         H  0.62104180  0.44099568  0.97689925     0.42000
H59         H  0.34676197  0.54407425  0.00549920     0.47000
H60         H  0.46397952  0.35419092  0.00797717     0.45700
H61         H  0.65194023  0.47064261  0.99169357     0.45800
H62         H  0.54071335  0.65658873  0.99780318     0.46200
N63         N  0.20975480  0.47568152  0.21282306    -0.00900
C64         C  0.20323346  0.46630450  0.25046429     0.01700
C65         C  0.23563674  0.44990997  0.26678698    -0.21200
C66         C  0.26349308  0.44949715  0.23873159    -0.21400
C67         C  0.24721206  0.46562870  0.20616816     0.01600
H68         H  0.23953521  0.44186490  0.29677025     0.15400
H69         H  0.29337778  0.44107567  0.24255632     0.15400
N70         N  0.79188537  0.48154560  0.20768994    -0.00900
C71         C  0.79843460  0.46895794  0.24437400     0.01700
C72         C  0.76623956  0.45066982  0.25909442    -0.21200
C73         C  0.73847348  0.45227833  0.23106019    -0.21400
C74         C  0.75457166  0.47154710  0.20011965     0.01600
H75         H  0.76231039  0.44014935  0.28830260     0.15400
H76         H  0.70866536  0.44323769  0.23414121     0.15400
N77         N  0.20793671  0.46790003  0.79240209    -0.00900
C78         C  0.24519972  0.45694098  0.79854695     0.01700
C79         C  0.26017271  0.43906851  0.76621707    -0.21200
C80         C  0.23162550  0.43927986  0.73885121    -0.21400
C81         C  0.20012238  0.45732354  0.75529744     0.01600
H82         H  0.28969697  0.42963517  0.76194623     0.15400
H83         H  0.23459624  0.43010551  0.70906731     0.15400
N84         N  0.79256690  0.48376085  0.79533362    -0.00900
C85         C  0.75478266  0.47500116  0.80244255     0.01700
C86         C  0.73838245  0.45657436  0.77113553    -0.21200
C87         C  0.76636438  0.45416415  0.74338282    -0.21400
C88         C  0.79901606  0.47121791  0.75854926     0.01600
H89         H  0.70830169  0.44866184  0.76764015     0.15400
H90         H  0.76232390  0.44413411  0.71400228     0.15400
N91         N  0.00279601  0.49911393  0.06263590    -0.34000
N92         N  0.94308611  0.50083652  0.00194577    -0.54600
N93         N  0.00364175  0.49970076  0.94255757    -0.34000
N94         N  0.06332991  0.49391725  0.00330847    -0.54600
C95         C  0.97052405  0.49426052  0.08455342     0.29600
C96         C  0.03398371  0.49115008  0.08516586     0.29600
C97         C  0.97182911  0.49539304  0.91980560     0.29600
C98         C  0.03532449  0.49197023  0.92059873     0.29600
C99         C  0.91997921  0.50516244  0.03342782     0.38200
C100        C  0.92034737  0.50512782  0.97020907     0.38200
C101        C  0.08619192  0.49717736  0.03506165     0.38200
C102        C  0.08670092  0.49697852  0.97190283     0.38200
C103        C  0.98148721  0.48336417  0.12155986    -0.19300
C104        C  0.02129164  0.48141101  0.12194166    -0.19300
C105        C  0.98363987  0.48542833  0.88279073    -0.19300
C106        C  0.02342554  0.48325644  0.88328762    -0.19300
C107        C  0.88232767  0.51189880  0.02149817    -0.20400
C108        C  0.88254838  0.51180857  0.98172221    -0.20400
C109        C  0.12435070  0.50181017  0.02367486    -0.20400
C110        C  0.12468070  0.50161741  0.98388189    -0.20400
C111        C  0.93152720  0.50066394  0.07274196    -0.15700
C112        C  0.07360835  0.49409257  0.07416202    -0.15700
C113        C  0.07475531  0.49393425  0.93258558    -0.15700
C114        C  0.93247647  0.50101869  0.93100475    -0.15700
H115        H  0.96274990  0.47749951  0.14592330     0.17200
H116        H  0.03888668  0.47379179  0.14664002     0.17200
H117        H  0.96547181  0.48014006  0.85788754     0.17200
H118        H  0.04152957  0.47604533  0.85880233     0.17200
H119        H  0.85709091  0.51584350  0.03956745     0.15500
H120        H  0.85753417  0.51574043  0.96338204     0.15500
H121        H  0.14944904  0.50473754  0.04210634     0.15500
H122        H  0.15008460  0.50443723  0.96583074     0.15500
H123        H  0.00365277  0.51091021  0.03513337     0.28800
H124        H  0.00399815  0.51058392  0.97044546     0.28700
O125        O  0.06157557  0.50250850  0.39341038    -0.72700
O126        O  0.10882895  0.49979851  0.43959489    -0.51600
C127        C  0.09690577  0.50075971  0.40412902     0.81000
O128        O  0.93467106  0.60974253  0.50344174    -0.57300
O129        O  0.88658644  0.56444720  0.49947709    -0.50300
C130        C  0.89921266  0.59968053  0.50064971     0.73000
O131        O  0.06135572  0.60894158  0.50324937    -0.71900
O132        O  0.10884237  0.56287297  0.50263524    -0.52400
C133        C  0.09675303  0.59825222  0.50278917     0.79000
O134        O  0.93550727  0.50110533  0.39220062    -0.57000
O135        O  0.88727431  0.49979029  0.43752208    -0.50100
C136        C  0.89993735  0.49974052  0.40226545     0.75600
Zr137      Zr  0.99822771  0.50328462  0.42210167     2.54700
O138        O  0.99850647  0.55854257  0.37856152    -0.77600
O139        O  0.99817100  0.45436476  0.37141472    -0.91000
Zr140      Zr  0.99778800  0.58068713  0.50391814     2.64700
O141        O  0.99877468  0.63045394  0.45410894    -0.95900
O142        O  0.99643855  0.62713361  0.55684507    -0.78000
O143        O  0.03677137  0.54224576  0.46286636    -0.81400
O144        O  0.95930608  0.54268655  0.46200267    -2.16100
O145        O  0.93387690  0.39279299  0.49466278    -0.64700
O146        O  0.88610740  0.43832872  0.49813098    -0.49300
C147        C  0.89841468  0.40308771  0.49528853     0.74000
O148        O  0.05976953  0.49451925  0.61107880    -0.57700
O149        O  0.10790481  0.49764888  0.56579114    -0.49600
C150        C  0.09535823  0.49497300  0.60098821     0.75800
O151        O  0.93384651  0.50050198  0.61013799    -0.69100
O152        O  0.88614685  0.50036770  0.56427809    -0.47700
C153        C  0.89840651  0.50027786  0.59968552     0.77200
O154        O  0.05955102  0.39164110  0.50169983    -0.64400
O155        O  0.10774458  0.43693165  0.50280860    -0.51600
C156        C  0.09511619  0.40168570  0.50260845     0.75600
Zr157      Zr  0.99687300  0.42148831  0.49980179     2.77500
O158        O  0.99435633  0.37224449  0.54997805    -0.95100
O159        O  0.99914163  0.37473603  0.44727253    -0.76000
Zr160      Zr  0.99704937  0.49947294  0.58143026     2.70100
O161        O  0.99562423  0.44797072  0.62930183    -0.77200
O162        O  0.00088761  0.55205819  0.62814494    -0.96300
Zr163      Zr  0.07488299  0.50029209  0.50244852     2.21500
Zr164      Zr  0.91984848  0.50129669  0.50112231     2.11100
O165        O  0.95828617  0.45990308  0.54110042    -2.45000
O166        O  0.03537927  0.45941059  0.54155719    -0.77000
O167        O  0.95909510  0.46202937  0.46002863    -0.69200
O168        O  0.03626666  0.54049187  0.54358404    -2.30100
O169        O  0.03602484  0.46128389  0.46054274    -2.26400
O170        O  0.95843747  0.54073384  0.54299674    -0.70900
H171        H  0.94355502  0.55910849  0.44586712     0.81100
H172        H  0.05237665  0.55606825  0.56025016     0.82100
H173        H  0.94198060  0.44343983  0.55667346     0.84400
H174        H  0.05198301  0.44518381  0.44424209     0.82000
H175        H  0.02080715  0.62278412  0.57116288     0.45000
H176        H  0.98286261  0.57190821  0.61821610     0.44000
H177        H  0.97961827  0.42740086  0.61749008     0.43700
H178        H  0.96829251  0.37456569  0.56156418     0.41600
H179        H  0.98646657  0.38795581  0.42531952     0.44700
H180        H  0.01918440  0.43630221  0.37848667     0.39500
H181        H  0.01482238  0.57804300  0.39170707     0.45600
H182        H  0.97533116  0.62578473  0.43838254     0.42000
H183        H  0.99365688  0.34747677  0.53562849     0.47000
H184        H  0.00781700  0.46787448  0.34810234     0.45700
H185        H  0.99334757  0.65482505  0.46811682     0.45800
H186        H  0.98815951  0.54190717  0.65168178     0.46200
N187        N  0.46825389  0.79869237  0.20480361    -0.00900
C188        C  0.45425514  0.80597448  0.24085086     0.01700
C189        C  0.43184278  0.77555772  0.25361367    -0.21200
C190        C  0.43251234  0.74815288  0.22508146    -0.21400
C191        C  0.45529371  0.76269756  0.19578808     0.01600
H192        H  0.41976842  0.77189933  0.28226234     0.15400
H193        H  0.42104138  0.71910791  0.22724597     0.15400
N194        N  0.49719255  0.21483134  0.21167857    -0.00900
C195        C  0.49538259  0.20933547  0.25066884     0.01700
C196        C  0.48998767  0.24380310  0.26990885    -0.21200
C197        C  0.48855868  0.27195472  0.24238764    -0.21400
C198        C  0.49317033  0.25376571  0.20723633     0.01600
H199        H  0.48840154  0.24810249  0.30087759     0.15400
H200        H  0.48575695  0.30270328  0.24751754     0.15400
N201        N  0.51886133  0.21534829  0.78920072    -0.00900
C202        C  0.52748157  0.25348904  0.79410441     0.01700
C203        C  0.53914259  0.26998185  0.75975418    -0.21200
C204        C  0.53724520  0.24162117  0.73231964    -0.21400
C205        C  0.52455097  0.20868817  0.75077996     0.01600
H206        H  0.54589082  0.30011973  0.75469370     0.15400
H207        H  0.54247579  0.24517274  0.70166486     0.15400
N208        N  0.47483651  0.79732988  0.79291182    -0.00900
C209        C  0.46215185  0.76111482  0.80136994     0.01700
C210        C  0.44260880  0.74523549  0.77046892    -0.21200
C211        C  0.44353153  0.77210592  0.74154258    -0.21400
C212        C  0.46362953  0.80347853  0.75574591     0.01600
H213        H  0.43191711  0.71591426  0.76801849     0.15400
H214        H  0.43367416  0.76782459  0.71214648     0.15400
N215        N  0.50480366  0.00696417  0.05922988    -0.34000
N216        N  0.50456385  0.06749980  0.99965985    -0.54600
N217        N  0.50670143  0.00724758  0.93903543    -0.34000
N218        N  0.50276608  0.94683952  0.99857564    -0.54600
C219        C  0.49920436  0.03877216  0.08174380     0.29600
C220        C  0.49740785  0.97515331  0.08113601     0.29600
C221        C  0.50109714  0.03929534  0.91695810     0.29600
C222        C  0.50043568  0.97563249  0.91640302     0.29600
C223        C  0.50850120  0.09035670  0.03140301     0.38200
C224        C  0.50891105  0.09055310  0.96817138     0.38200
C225        C  0.50502329  0.92364063  0.03015539     0.38200
C226        C  0.50649248  0.92379320  0.96696579     0.38200
C227        C  0.48877332  0.02686436  0.11857993    -0.19300
C228        C  0.48758775  0.98702737  0.11818712    -0.19300
C229        C  0.49175269  0.02775953  0.87969053    -0.19300
C230        C  0.49136896  0.98789115  0.87933690    -0.19300
C231        C  0.51502163  0.12818957  0.01990058    -0.20400
C232        C  0.51521871  0.12832695  0.98009956    -0.20400
C233        C  0.50999638  0.88561623  0.01841720    -0.20400
C234        C  0.51093465  0.88571337  0.97863590    -0.20400
C235        C  0.50414419  0.07823046  0.07057187    -0.15700
C236        C  0.50036609  0.93565646  0.06933754    -0.15700
C237        C  0.50346153  0.93601412  0.92772989    -0.15700
C238        C  0.50542603  0.07866185  0.92881407    -0.15700
H239        H  0.48249253  0.04500224  0.14329561     0.17200
H240        H  0.48027783  0.96886840  0.14257964     0.17200
H241        H  0.48573781  0.04617295  0.85515084     0.17200
H242        H  0.48497481  0.96997096  0.85449374     0.17200
H243        H  0.51883571  0.15324328  0.03826231     0.15500
H244        H  0.51924757  0.15351950  0.96201277     0.15500
H245        H  0.51223210  0.86028210  0.03660668     0.15500
H246        H  0.51399031  0.86047164  0.96039104     0.15500
H247        H  0.51621658  0.00685328  0.03154404     0.28800
H248        H  0.51746739  0.00699748  0.96696873     0.28700
N249        N  0.21269983  0.78834983  0.48488747    -0.00900
C250        C  0.20686794  0.74997794  0.47859146     0.01700
C251        C  0.24071502  0.73193010  0.46778929    -0.21200
C252        C  0.26878424  0.75970693  0.46772957    -0.21400
C253        C  0.25104570  0.79372708  0.47838702     0.01600
H254        H  0.24493515  0.70136269  0.46256921     0.15400
H255        H  0.29927930  0.75524093  0.46230283     0.15400
N256        N  0.79598673  0.20623948  0.47094572    -0.00900
C257        C  0.80130131  0.24344935  0.45922894     0.01700
C258        C  0.76869825  0.25729852  0.44099694    -0.21200
C259        C  0.74192197  0.22824866  0.44193334    -0.21400
C260        C  0.75902848  0.19756490  0.46066897     0.01600
H261        H  0.76369565  0.28658900  0.43121121     0.15400
H262        H  0.71202531  0.23046080  0.43297182     0.15400
N263        N  0.21448860  0.21226632  0.48946538    -0.00900
C264        C  0.25301900  0.20836009  0.48218069     0.01700
C265        C  0.26928742  0.24330815  0.47212779    -0.21200
C266        C  0.24034120  0.27008334  0.47352359    -0.21400
C267        C  0.20730734  0.25065355  0.48438063     0.01600
H268        H  0.29949270  0.24905272  0.46627743     0.15400
H269        H  0.24341428  0.30087840  0.46888658     0.15400
N270        N  0.79636964  0.79458010  0.47301709    -0.00900
C271        C  0.80341759  0.75812894  0.45998617     0.01700
C272        C  0.77131582  0.74303080  0.44186565    -0.21200
C273        C  0.74310314  0.77053097  0.44407271    -0.21400
C274        C  0.75882735  0.80159328  0.46345977     0.01600
H275        H  0.76761939  0.71372319  0.43150195     0.15400
H276        H  0.71320076  0.76686909  0.43559992     0.15400
N277        N  0.00739341  0.94047651  0.49843320    -0.34000
N278        N  0.94736264  0.00073381  0.49529284    -0.54600
N279        N  0.00723866  0.06114010  0.50085817    -0.34000
N280        N  0.06756549  0.00086815  0.49874876    -0.54600
C281        C  0.97581241  0.91822024  0.49116050     0.29600
C282        C  0.03933359  0.91837982  0.49256595     0.29600
C283        C  0.97561173  0.08370512  0.49486579     0.29600
C284        C  0.03921117  0.08375085  0.49727537     0.29600
C285        C  0.92420765  0.96904310  0.49751937     0.38200
C286        C  0.92407183  0.03226887  0.49797470     0.38200
C287        C  0.09055619  0.96920155  0.50207957     0.38200
C288        C  0.09053003  0.03239657  0.50353360     0.38200
C289        C  0.98793781  0.88129870  0.48124893    -0.19300
C290        C  0.02777268  0.88139995  0.48209833    -0.19300
C291        C  0.98774786  0.12139444  0.48841656    -0.19300
C292        C  0.02758893  0.12143104  0.48995500    -0.19300
C293        C  0.88605345  0.98064133  0.50131469    -0.20400
C294        C  0.88596044  0.02038884  0.50152809    -0.20400
C295        C  0.12835558  0.98079311  0.50863036    -0.20400
C296        C  0.12834717  0.02055631  0.50951463    -0.20400
C297        C  0.93632606  0.92979108  0.49402297    -0.15700
C298        C  0.07859620  0.93001284  0.49743813    -0.15700
C299        C  0.07857266  0.07178015  0.50095164    -0.15700
C300        C  0.93607549  0.07168432  0.49562919    -0.15700
H301        H  0.96995561  0.85676196  0.47391944     0.17200
H302        H  0.04612595  0.85692369  0.47558323     0.17200
H303        H  0.96978552  0.14638532  0.48291546     0.17200
H304        H  0.04591081  0.14645641  0.48582808     0.17200
H305        H  0.86073385  0.96236855  0.50328855     0.15500
H306        H  0.86056606  0.03848560  0.50383786     0.15500
H307        H  0.15347555  0.96250939  0.51213160     0.15500
H308        H  0.15346846  0.03868820  0.51388994     0.15500
H309        H  0.00708773  0.96808392  0.51003022     0.28800
H310        H  0.00696113  0.03253492  0.50952341     0.28700
O311        O  0.39439448  0.93812934  0.49802071    -0.72700
O312        O  0.43895478  0.88924907  0.49866090    -0.51600
C313        C  0.40399699  0.90245441  0.49803530     0.81000
O314        O  0.50850358  0.06231971  0.39188277    -0.57300
O315        O  0.50711897  0.10987167  0.43790231    -0.50300
C316        C  0.50830550  0.09774684  0.40250561     0.73000
O317        O  0.50006219  0.93579280  0.39057871    -0.71900
O318        O  0.49924634  0.88775118  0.43599566    -0.52400
C319        C  0.49835684  0.90026407  0.40072803     0.79000
O320        O  0.39674089  0.06402807  0.49964388    -0.57000
O321        O  0.44352274  0.11077807  0.50009213    -0.50100
C322        C  0.40787343  0.09927629  0.49979318     0.75600
Zr323      Zr  0.42479508  0.00050496  0.49964592     2.54700
O324        O  0.37623155  0.00226996  0.44878404    -0.77600
O325        O  0.37806626  0.00300416  0.55224382    -0.91000
Zr326      Zr  0.50484347  0.99876866  0.41996434     2.64700
O327        O  0.45386039  0.00111358  0.37145845    -0.95900
O328        O  0.55673487  0.99566881  0.37247722    -0.78000
O329        O  0.46327524  0.96117047  0.45901823    -0.81400
O330        O  0.46501097  0.03813151  0.45928792    -2.16100
O331        O  0.50321263  0.06085484  0.60956948    -0.64700
O332        O  0.50465742  0.10876998  0.56400778    -0.49300
C333        C  0.50351299  0.09639669  0.59933857     0.74000
O334        O  0.61156079  0.93271576  0.50024798    -0.57700
O335        O  0.56487311  0.88585689  0.49912283    -0.49600
C336        C  0.60048721  0.89745021  0.49965344     0.75800
O337        O  0.61437359  0.05888221  0.49861269    -0.69100
O338        O  0.56972369  0.10768019  0.49937752    -0.47700
C339        C  0.60475559  0.09457221  0.49842084     0.77200
O340        O  0.50379287  0.93470390  0.60808939    -0.64400
O341        O  0.50160753  0.88725507  0.56198798    -0.51600
C342        C  0.50237610  0.89934867  0.59740352     0.75600
Zr343      Zr  0.50403003  0.99794964  0.57964748     2.77500
O344        O  0.55478365  0.99556224  0.62836747    -0.95100
O345        O  0.45111271  0.99623282  0.62603423    -0.76000
Zr346      Zr  0.58390903  0.99643472  0.50024678     2.70100
O347        O  0.63002584  0.99522337  0.55335935    -0.77200
O348        O  0.63245994  0.99422763  0.44926006    -0.96300
Zr349      Zr  0.50263875  0.92101922  0.49916667     2.21500
Zr350      Zr  0.50590467  0.07581031  0.50052181     2.11100
O351        O  0.54560904  0.03595686  0.54090493    -2.45000
O352        O  0.54363372  0.95851470  0.54023048    -0.77000
O353        O  0.46455150  0.03785504  0.54071295    -0.69200
O354        O  0.54427939  0.95895925  0.45896286    -2.30100
O355        O  0.46289742  0.96058234  0.53986849    -2.26400
O356        O  0.54567312  0.03619719  0.46001177    -0.70900
H357        H  0.44930550  0.05461346  0.44317449     0.81100
H358        H  0.56006074  0.94266511  0.44266776     0.82100
H359        H  0.56206761  0.05159082  0.55717063     0.84400
H360        H  0.44629924  0.94483891  0.55587380     0.82000
H361        H  0.57555493  0.01547709  0.38099372     0.45000
H362        H  0.62874589  0.01836309  0.43436556     0.44000
H363        H  0.62255844  0.97242260  0.56896235     0.43700
H364        H  0.57141357  0.01820512  0.62292812     0.41600
H365        H  0.46297384  0.00398341  0.65090207     0.44700
H366        H  0.38084843  0.97802980  0.56589469     0.39500
H367        H  0.38721361  0.98627648  0.42773614     0.45600
H368        H  0.43710121  0.02292526  0.37932085     0.42000
H369        H  0.54159252  0.00201185  0.65294731     0.47000
H370        H  0.35260114  0.00132599  0.53930608     0.45700
H371        H  0.46686925  0.01020445  0.34763601     0.45800
H372        H  0.65738461  0.99789320  0.46282909     0.46200
C373        C  0.73324937  0.83006900  0.48000894    -0.15900
C374        C  0.70280168  0.84448645  0.48948025     0.08100
C375        C  0.66406726  0.85658510  0.49587741     0.10000
C376        C  0.63198348  0.87028244  0.49866775    -0.16800
C377        C  0.90616036  0.89958371  0.49196473    -0.15900
C378        C  0.88067869  0.87511997  0.49020898     0.08100
C379        C  0.85040838  0.84668046  0.48732401     0.10000
C380        C  0.82496764  0.82257053  0.48261882    -0.16800
C381        C  0.27760717  0.17552134  0.48949023    -0.15900
C382        C  0.30721423  0.15746522  0.49401720     0.08100
C383        C  0.34509772  0.14197310  0.49742193     0.10000
C384        C  0.37653690  0.12668221  0.49908473    -0.12300
C385        C  0.10883267  0.10191423  0.50082880    -0.15900
C386        C  0.13380385  0.12691672  0.50015029     0.08100
C387        C  0.16280808  0.15667688  0.49845180     0.10000
C388        C  0.18695437  0.18230607  0.49547812    -0.16800
C389        C  0.63706378  0.12064555  0.49636683    -0.15900
C390        C  0.66866133  0.13515156  0.49268799     0.08100
C391        C  0.70623097  0.14991877  0.48549143     0.10000
C392        C  0.73518837  0.16700532  0.47594716    -0.16800
C393        C  0.82532336  0.17917243  0.48086577    -0.15900
C394        C  0.85064501  0.15507294  0.48614182     0.08100
C395        C  0.88047289  0.12628664  0.49007979     0.10000
C396        C  0.90576203  0.10170991  0.49280143    -0.16800
C397        C  0.27378189  0.82743552  0.48662079    -0.15900
C398        C  0.30249745  0.84647565  0.49174357     0.08100
C399        C  0.34009848  0.86197545  0.49538877     0.10000
C400        C  0.37175006  0.87649138  0.49711474    -0.16800
C401        C  0.18442302  0.81747083  0.49109113    -0.15900
C402        C  0.16051472  0.84323067  0.49408029     0.08100
C403        C  0.13258090  0.87387566  0.49575983     0.10000
C404        C  0.10851112  0.89966113  0.49662329    -0.16800
C405        C  0.47927233  0.83146330  0.72924824    -0.15900
C406        C  0.48900027  0.84610284  0.69908253     0.08100
C407        C  0.49649905  0.85870552  0.66084673     0.10000
C408        C  0.50038354  0.87257870  0.62903562    -0.16800
C409        C  0.48706737  0.82583792  0.81996240    -0.15900
C410        C  0.49398809  0.85088413  0.84396506     0.08100
C411        C  0.49885954  0.88066527  0.87269650     0.10000
C412        C  0.50147739  0.90590679  0.89737725    -0.16800
C413        C  0.51346944  0.17534537  0.72828626    -0.15900
C414        C  0.50721242  0.15613792  0.69969925     0.08100
C415        C  0.50363595  0.13918557  0.66242843     0.10000
C416        C  0.50286543  0.12326443  0.63123212    -0.16800
C417        C  0.50572152  0.10885693  0.89859037    -0.15900
C418        C  0.50660158  0.13378691  0.87353865     0.08100
C419        C  0.50863812  0.16293857  0.84390447     0.10000
C420        C  0.51203090  0.18738383  0.81859713    -0.16800
C421        C  0.50131861  0.17446900  0.27251804    -0.15900
C422        C  0.50508577  0.15533214  0.30149167     0.08100
C423        C  0.50773282  0.13969266  0.33930077     0.10000
C424        C  0.50870151  0.12466334  0.37084613    -0.16800
C425        C  0.50337995  0.10820038  0.10114531    -0.15900
C426        C  0.50262698  0.13286983  0.12654691     0.08100
C427        C  0.50153926  0.16177468  0.15659106     0.10000
C428        C  0.50009257  0.18626500  0.18211939    -0.16800
C429        C  0.47039300  0.83255591  0.26872534    -0.15900
C430        C  0.48061371  0.84673247  0.29906473     0.08100
C431        C  0.48914611  0.85966631  0.33713785     0.10000
C432        C  0.49433931  0.87378557  0.36877234    -0.16800
C433        C  0.48093139  0.82688593  0.17770473    -0.15900
C434        C  0.48814579  0.85148136  0.15339369     0.08100
C435        C  0.49362158  0.88060011  0.12421499     0.10000
C436        C  0.49707155  0.90545951  0.09934270    -0.16800
C437        C  0.87181243  0.37119456  0.49232341    -0.15900
C438        C  0.85791921  0.33929308  0.48841822     0.08100
C439        C  0.84494870  0.30089390  0.48164888     0.10000
C440        C  0.82995043  0.27044830  0.47307015    -0.16800
C441        C  0.83306371  0.73219017  0.47342122    -0.15900
C442        C  0.84821123  0.70208350  0.48260164     0.08100
C443        C  0.86027774  0.66382604  0.49109141     0.10000
C444        C  0.87322099  0.63184725  0.49672177    -0.16800
C445        C  0.12161987  0.36961412  0.50312369    -0.15900
C446        C  0.13689925  0.33815295  0.50231197     0.08100
C447        C  0.15336680  0.30068669  0.49916436     0.10000
C448        C  0.17290728  0.27219031  0.49381018    -0.16800
C449        C  0.12376629  0.62972637  0.50188237    -0.15900
C450        C  0.13907042  0.66101513  0.49956860     0.08100
C451        C  0.15482094  0.69845137  0.49464239     0.10000
C452        C  0.17347999  0.72721991  0.48821994    -0.16800
C453        C  0.82946987  0.48320377  0.73271778    -0.15900
C454        C  0.84530196  0.49049121  0.70238421     0.08100
C455        C  0.85821273  0.49604778  0.66379482     0.10000
C456        C  0.87181459  0.49893505  0.63167054    -0.16800
C457        C  0.82142563  0.49332130  0.82310557    -0.15900
C458        C  0.84693102  0.49799730  0.84718229     0.08100
C459        C  0.87711815  0.50038740  0.87581819     0.10000
C460        C  0.90245069  0.50106097  0.90052323    -0.16800
C461        C  0.12196207  0.49177489  0.63290211    -0.15900
C462        C  0.13692971  0.48744096  0.66425788     0.08100
C463        C  0.15207006  0.48013387  0.70175211     0.10000
C464        C  0.16929760  0.47126479  0.73088521    -0.16800
C465        C  0.10482413  0.49177843  0.90245159    -0.15900
C466        C  0.12908490  0.48940476  0.87692408     0.08100
C467        C  0.15713163  0.48515624  0.84661240     0.10000
C468        C  0.18075346  0.47899498  0.82112768    -0.16800
C469        C  0.87353234  0.49736419  0.37017965    -0.15900
C470        C  0.85916087  0.49414265  0.33843976     0.08100
C471        C  0.84506948  0.48858427  0.30028503     0.10000
C472        C  0.82867833  0.48128932  0.27026857    -0.16800
C473        C  0.90118509  0.50098617  0.10278110    -0.15900
C474        C  0.87582739  0.50030633  0.12739064     0.08100
C475        C  0.84582448  0.49748691  0.15605558     0.10000
C476        C  0.82053780  0.49211183  0.18014715    -0.16800
C477        C  0.12394834  0.49867753  0.37258561    -0.15900
C478        C  0.13926826  0.49503389  0.34134887     0.08100
C479        C  0.15475315  0.48820964  0.30396991     0.10000
C480        C  0.17221707  0.47960719  0.27492335    -0.16800
C481        C  0.18139325  0.48488032  0.18459414    -0.15900
C482        C  0.15667109  0.48946598  0.15984499     0.08100
C483        C  0.12765851  0.49198166  0.13025392     0.10000
C484        C  0.10314968  0.49305310  0.10487920    -0.16800
C485        C  0.49718404  0.27660159  0.17273061    -0.15900
C486        C  0.50009286  0.30592950  0.15400655     0.08100
C487        C  0.50249530  0.34401538  0.13906651     0.10000
C488        C  0.50350476  0.37589239  0.12478269    -0.16800
C489        C  0.47250669  0.73648272  0.16831358    -0.15900
C490        C  0.48308122  0.70669533  0.15338496     0.08100
C491        C  0.49086627  0.66868474  0.14009376     0.10000
C492        C  0.49453718  0.63692519  0.12591871    -0.16800
C493        C  0.49481949  0.63729943  0.87626641    -0.15900
C494        C  0.49138114  0.66902250  0.86214827     0.08100
C495        C  0.48476280  0.70689644  0.84820637     0.10000
C496        C  0.47611245  0.73633474  0.83164335    -0.16800
C497        C  0.72985267  0.49084464  0.83197854    -0.15900
C498        C  0.69978450  0.50008841  0.84741862     0.08100
C499        C  0.66126999  0.50648502  0.86045021     0.10000
C500        C  0.62917670  0.50913947  0.87431225    -0.16800
C501        C  0.50293587  0.37620794  0.87537838    -0.15900
C502        C  0.50628101  0.34481764  0.86025711     0.08100
C503        C  0.51188899  0.30724773  0.84464772     0.10000
C504        C  0.51826998  0.27795516  0.82660374    -0.16800
C505        C  0.36804754  0.49340913  0.87662121    -0.15900
C506        C  0.33701493  0.48743331  0.86150860     0.08100
C507        C  0.29985923  0.47900364  0.84607946     0.10000
C508        C  0.27071731  0.47005809  0.82888010    -0.16800
C509        C  0.27177843  0.47809222  0.17483356    -0.15900
C510        C  0.30110350  0.48609623  0.15747971     0.08100
C511        C  0.33872503  0.49289472  0.14237996     0.10000
C512        C  0.37003882  0.49737297  0.12732544    -0.16800
C513        C  0.63074147  0.50546655  0.12483713    -0.15900
C514        C  0.66228845  0.50259211  0.13967739     0.08100
C515        C  0.70013572  0.49615653  0.15419326     0.10000
C516        C  0.72969004  0.48701521  0.17048489    -0.16800
loop_ 
_geom_bond_atom_site_label_1 
_geom_bond_atom_site_label_2 
_geom_bond_distance 
_geom_bond_site_symmetry_2 
_ccdc_geom_bond_type 
O1          Zr13   2.400       .  S
O1            C3   1.278       .  A
O2          Zr39   2.472       .  S
O2            C3   1.296       .  A
C3          C488   1.437       .  S
O4          Zr16   2.406       .  S
O4            C6   1.279       .  A
O5          Zr40   2.480       .  S
O5            C6   1.297       .  A
C6          C500   1.443       .  S
O7          Zr16   2.406   1_554  S
O7            C9   1.280       .  A
O8          Zr39   2.474       .  S
O8            C9   1.296       .  A
C9          C513   1.441       .  S
O10         Zr13   2.400   1_556  S
O10          C12   1.279       .  A
O11         Zr40   2.475       .  S
O11          C12   1.296       .  A
C12         C501   1.440       .  S
Zr13         O14   2.433   1_554  S
Zr13         O15   2.435   1_554  S
Zr13         O19   2.361       .  S
Zr13         O20   2.359   1_554  S
Zr13         O43   2.360   1_554  S
Zr13         O45   2.362       .  S
O14          H57   0.990       .  S
O15          H56   0.990   1_556  S
O15          H60   0.990   1_556  S
Zr16         O17   2.437       .  S
Zr16         O18   2.436   1_556  S
Zr16         O20   2.364       .  S
Zr16         O19   2.365   1_556  S
Zr16         O44   2.364   1_556  S
Zr16         O46   2.364       .  S
O17          H58   0.990       .  S
O17          H61   0.990       .  S
O18          H51   0.990   1_554  S
O19         Zr39   2.389       .  S
O20         Zr40   2.391       .  S
O20          H47   0.966       .  S
O21         Zr33   2.410   1_556  S
O21          C23   1.280       .  A
O22         Zr40   2.477       .  S
O22          C23   1.297       .  A
C23         C505   1.443       .  S
O24         Zr36   2.402       .  S
O24          C26   1.279       .  A
O25         Zr39   2.472       .  S
O25          C26   1.296       .  A
C26         C492   1.438       .  S
O27         Zr36   2.398   1_556  S
O27          C29   1.278       .  A
O28         Zr40   2.469       .  S
O28          C29   1.295       .  A
C29         C493   1.435       .  S
O30         Zr33   2.411       .  S
O30          C32   1.280       .  A
O31         Zr39   2.476       .  S
O31          C32   1.296       .  A
C32         C512   1.442       .  S
Zr33         O34   2.437       .  S
Zr33         O35   2.435       .  S
Zr33         O41   2.365   1_554  S
Zr33         O42   2.367       .  S
Zr33         O45   2.364       .  S
Zr33         O43   2.365   1_554  S
O34          H54   0.990   1_554  S
O34          H59   0.990       .  S
O35          H55   0.990   1_554  S
Zr36         O37   2.434   1_554  S
Zr36         O38   2.435       .  S
Zr36         O42   2.368       .  S
Zr36         O41   2.370   1_554  S
Zr36         O46   2.361   1_554  S
Zr36         O44   2.360       .  S
O37          H53   0.990   1_556  S
O38          H52   0.990   1_554  S
O38          H62   0.990   1_554  S
Zr39         O42   2.395       .  S
Zr39         O44   2.395       .  S
Zr39         O45   2.393       .  S
Zr40         O41   2.400       .  S
Zr40         O43   2.387       .  S
Zr40         O46   2.391       .  S
O41          H49   0.966       .  S
O44          H48   0.966       .  S
O45          H50   0.966       .  S
N63          C67   1.362       .  A
N63          C64   1.361       .  A
N63         C481   1.421       .  S
C64         C480   1.442       .  S
C64          C65   1.378       .  A
C65          C66   1.368       .  A
C65          H68   1.083       .  S
C66          C67   1.379       .  A
C66          H69   1.083       .  S
C67         C509   1.443       .  S
N70          C74   1.362       .  A
N70          C71   1.361       .  A
N70         C476   1.422       .  S
C71         C472   1.442       .  S
C71          C72   1.378       .  A
C72          C73   1.367       .  A
C72          H75   1.083       .  S
C73          C74   1.379       .  A
C73          H76   1.083       .  S
C74         C516   1.443       .  S
N77          C81   1.362       .  A
N77          C78   1.361       .  A
N77         C468   1.421       .  S
C78         C508   1.445       .  S
C78          C79   1.379       .  A
C79          C80   1.369       .  A
C79          H82   1.083       .  S
C80          C81   1.379       .  A
C80          H83   1.083       .  S
C81         C464   1.444       .  S
N84          C88   1.363       .  A
N84          C85   1.364       .  A
N84         C457   1.425       .  S
C85         C497   1.445       .  S
C85          C86   1.379       .  A
C86          C87   1.366       .  A
C86          H89   1.083       .  S
C87          C88   1.378       .  A
C87          H90   1.083       .  S
C88         C453   1.442       .  S
N91          C96   1.360       .  A
N91          C95   1.360   1_455  A
N91         H123   1.036       .  S
N92          C99   1.359       .  A
N92         C100   1.359   1_554  A
N93          C98   1.360       .  A
N93          C97   1.362   1_455  A
N93         H124   1.035       .  S
N94         C101   1.359       .  A
N94         C102   1.358   1_554  A
C95         C103   1.388       .  A
C95         C111   1.428       .  A
C96         C112   1.426       .  A
C96         C104   1.387       .  A
C97         C105   1.387       .  A
C97         C114   1.429       .  A
C98         C113   1.428       .  A
C98         C106   1.388       .  A
C99         C111   1.427       .  A
C99         C107   1.387       .  A
C100        C114   1.427       .  A
C100        C108   1.386       .  A
C101        C109   1.387       .  A
C101        C112   1.425       .  A
C102        C110   1.387       .  A
C102        C113   1.426       .  A
C103        C104   1.379   1_655  A
C103        H115   1.082       .  S
C104        H116   1.082       .  S
C105        C106   1.379   1_655  A
C105        H117   1.082       .  S
C106        H118   1.082       .  S
C107        C108   1.376   1_554  A
C107        H119   1.082       .  S
C108        H120   1.082       .  S
C109        C110   1.377   1_554  A
C109        H121   1.082       .  S
C110        H122   1.082       .  S
C111        C473   1.477       .  S
C112        C484   1.475       .  S
C113        C465   1.474       .  S
C114        C460   1.481       .  S
O125       Zr137   2.406   1_455  S
O125        C127   1.279       .  A
O126       Zr163   2.471       .  S
O126        C127   1.295       .  A
C127        C477   1.439       .  S
O128       Zr140   2.405       .  S
O128        C130   1.279       .  A
O129       Zr164   2.471       .  S
O129        C130   1.295       .  A
C130        C444   1.438       .  S
O131       Zr140   2.407   1_455  S
O131        C133   1.280       .  A
O132       Zr163   2.463       .  S
O132        C133   1.294       .  A
C133        C449   1.435       .  S
O134       Zr137   2.406       .  S
O134        C136   1.280       .  A
O135       Zr164   2.473       .  S
O135        C136   1.296       .  A
C136        C469   1.440       .  S
Zr137       O138   2.435       .  S
Zr137       O139   2.436       .  S
Zr137       O143   2.363   1_655  S
Zr137       O144   2.361       .  S
Zr137       O167   2.365       .  S
Zr137       O169   2.366   1_655  S
O138        H181   0.990   1_655  S
O139        H180   0.990   1_655  S
O139        H184   0.990   1_655  S
Zr140       O141   2.437       .  S
Zr140       O142   2.436       .  S
Zr140       O144   2.367       .  S
Zr140       O143   2.367   1_655  S
Zr140       O168   2.366   1_655  S
Zr140       O170   2.365       .  S
O141        H182   0.990       .  S
O141        H185   0.990       .  S
O142        H175   0.990   1_655  S
O143       Zr163   2.394       .  S
O144       Zr164   2.397       .  S
O144        H171   0.966       .  S
O145       Zr157   2.401       .  S
O145        C147   1.278       .  A
O146       Zr164   2.473       .  S
O146        C147   1.296       .  A
C147        C437   1.440       .  S
O148       Zr160   2.407   1_455  S
O148        C150   1.280       .  A
O149       Zr163   2.474       .  S
O149        C150   1.296       .  A
C150        C461   1.442       .  S
O151       Zr160   2.402       .  S
O151        C153   1.279       .  A
O152       Zr164   2.476       .  S
O152        C153   1.297       .  A
C153        C456   1.439       .  S
O154       Zr157   2.404   1_455  S
O154        C156   1.279       .  A
O155       Zr163   2.470       .  S
O155        C156   1.295       .  A
C156        C445   1.440       .  S
Zr157       O158   2.435       .  S
Zr157       O159   2.433       .  S
Zr157       O165   2.364       .  S
Zr157       O166   2.362   1_655  S
Zr157       O169   2.361   1_655  S
Zr157       O167   2.362       .  S
O158        H178   0.990       .  S
O158        H183   0.990       .  S
O159        H179   0.990       .  S
Zr160       O161   2.434       .  S
Zr160       O162   2.436   1_655  S
Zr160       O166   2.362   1_655  S
Zr160       O165   2.370       .  S
Zr160       O170   2.366       .  S
Zr160       O168   2.360   1_655  S
O161        H177   0.990       .  S
O162        H176   0.990   1_455  S
O162        H186   0.990   1_455  S
Zr163       O166   2.387       .  S
Zr163       O168   2.396       .  S
Zr163       O169   2.393       .  S
Zr164       O165   2.396       .  S
Zr164       O167   2.389       .  S
Zr164       O170   2.396       .  S
O165        H173   0.966       .  S
O168        H172   0.966       .  S
O169        H174   0.966       .  S
N187        C191   1.360       .  A
N187        C188   1.361       .  A
N187        C433   1.422       .  S
C188        C429   1.444       .  S
C188        C189   1.380       .  A
C189        C190   1.368       .  A
C189        H192   1.083       .  S
C190        C191   1.379       .  A
C190        H193   1.083       .  S
C191        C489   1.442       .  S
N194        C198   1.363       .  A
N194        C195   1.364       .  A
N194        C428   1.425       .  S
C195        C421   1.439       .  S
C195        C196   1.378       .  A
C196        C197   1.364       .  A
C196        H199   1.083       .  S
C197        C198   1.378       .  A
C197        H200   1.083       .  S
C198        C485   1.439       .  S
N201        C205   1.363       .  A
N201        C202   1.363       .  A
N201        C420   1.424       .  S
C202        C504   1.442       .  S
C202        C203   1.379       .  A
C203        C204   1.366       .  A
C203        H206   1.083       .  S
C204        C205   1.378       .  A
C204        H207   1.083       .  S
C205        C413   1.443       .  S
N208        C212   1.360       .  A
N208        C209   1.359       .  A
N208        C409   1.423       .  S
C209        C496   1.438       .  S
C209        C210   1.379       .  A
C210        C211   1.367       .  A
C210        H213   1.083       .  S
C211        C212   1.379       .  A
C211        H214   1.083       .  S
C212        C405   1.439       .  S
N215        C220   1.361   1_545  A
N215        C219   1.362       .  A
N215        H247   1.036       .  S
N216        C223   1.360   1_556  A
N216        C224   1.359       .  A
N217        C222   1.362   1_545  A
N217        C221   1.361       .  A
N217        H248   1.036       .  S
N218        C225   1.359   1_556  A
N218        C226   1.359       .  A
C219        C227   1.387       .  A
C219        C235   1.429       .  A
C220        C236   1.430       .  A
C220        C228   1.388       .  A
C221        C229   1.388       .  A
C221        C238   1.430       .  A
C222        C237   1.430       .  A
C222        C230   1.387       .  A
C223        C235   1.427       .  A
C223        C231   1.387       .  A
C224        C238   1.427       .  A
C224        C232   1.387       .  A
C225        C233   1.387       .  A
C225        C236   1.427       .  A
C226        C234   1.387       .  A
C226        C237   1.426       .  A
C227        C228   1.379   1_545  A
C227        H239   1.082       .  S
C228        H240   1.082       .  S
C229        C230   1.380   1_545  A
C229        H241   1.082       .  S
C230        H242   1.082       .  S
C231        C232   1.377   1_554  A
C231        H243   1.082       .  S
C232        H244   1.082       .  S
C233        C234   1.377   1_554  A
C233        H245   1.082       .  S
C234        H246   1.082       .  S
C235        C425   1.481       .  S
C236        C436   1.478       .  S
C237        C412   1.480       .  S
C238        C417   1.479       .  S
N249        C253   1.358       .  A
N249        C250   1.360       .  A
N249        C401   1.421       .  S
C250        C452   1.437       .  S
C250        C251   1.379       .  A
C251        C252   1.366       .  A
C251        H254   1.083       .  S
C252        C253   1.378       .  A
C252        H255   1.083       .  S
C253        C397   1.435       .  S
N256        C260   1.361       .  A
N256        C257   1.362       .  A
N256        C393   1.424       .  S
C257        C440   1.443       .  S
C257        C258   1.379       .  A
C258        C259   1.367       .  A
C258        H261   1.083       .  S
C259        C260   1.378       .  A
C259        H262   1.083       .  S
C260        C392   1.441       .  S
N263        C267   1.363       .  A
N263        C264   1.363       .  A
N263        C388   1.423       .  S
C264        C381   1.443       .  S
C264        C265   1.378       .  A
C265        C266   1.366       .  A
C265        H268   1.083       .  S
C266        C267   1.378       .  A
C266        H269   1.083       .  S
C267        C448   1.442       .  S
N270        C274   1.363       .  A
N270        C271   1.361       .  A
N270        C380   1.423       .  S
C271        C441   1.441       .  S
C271        C272   1.378       .  A
C272        C273   1.366       .  A
C272        H275   1.083       .  S
C273        C274   1.378       .  A
C273        H276   1.083       .  S
C274        C373   1.443       .  S
N277        C282   1.359       .  A
N277        C281   1.360   1_455  A
N277        H309   1.036       .  S
N278        C285   1.360   1_545  A
N278        C286   1.360       .  A
N279        C284   1.360       .  A
N279        C283   1.361   1_455  A
N279        H310   1.034       .  S
N280        C287   1.359   1_545  A
N280        C288   1.359       .  A
C281        C289   1.388       .  A
C281        C297   1.427       .  A
C282        C298   1.427       .  A
C282        C290   1.388       .  A
C283        C291   1.388       .  A
C283        C300   1.430       .  A
C284        C299   1.430       .  A
C284        C292   1.388       .  A
C285        C297   1.427       .  A
C285        C293   1.386       .  A
C286        C300   1.428       .  A
C286        C294   1.386       .  A
C287        C295   1.387       .  A
C287        C298   1.426       .  A
C288        C296   1.387       .  A
C288        C299   1.427       .  A
C289        C290   1.379   1_655  A
C289        H301   1.082       .  S
C290        H302   1.082       .  S
C291        C292   1.380   1_655  A
C291        H303   1.082       .  S
C292        H304   1.082       .  S
C293        C294   1.375   1_565  A
C293        H305   1.082       .  S
C294        H306   1.082       .  S
C295        C296   1.376   1_565  A
C295        H307   1.082       .  S
C296        H308   1.082       .  S
C297        C377   1.478       .  S
C298        C404   1.475       .  S
C299        C385   1.477       .  S
C300        C396   1.480       .  S
O311       Zr323   2.401   1_565  S
O311        C313   1.279       .  A
O312       Zr349   2.462       .  S
O312        C313   1.294       .  A
C313        C400   1.432       .  S
O314       Zr326   2.408   1_545  S
O314        C316   1.279       .  A
O315       Zr350   2.467       .  S
O315        C316   1.295       .  A
C316        C424   1.438       .  S
O317       Zr326   2.409       .  S
O317        C319   1.280       .  A
O318       Zr349   2.472       .  S
O318        C319   1.295       .  A
C319        C432   1.442       .  S
O320       Zr323   2.403       .  S
O320        C322   1.279       .  A
O321       Zr350   2.475       .  S
O321        C322   1.296       .  A
C322        C384   1.441       .  S
Zr323       O324   2.435       .  S
Zr323       O325   2.435       .  S
Zr323       O329   2.366   1_545  S
Zr323       O330   2.362       .  S
Zr323       O353   2.362       .  S
Zr323       O355   2.364   1_545  S
O324        H367   0.990   1_545  S
O325        H366   0.990   1_545  S
O325        H370   0.990       .  S
Zr326       O327   2.437   1_565  S
Zr326       O328   2.435       .  S
Zr326       O330   2.367   1_565  S
Zr326       O329   2.363       .  S
Zr326       O354   2.364       .  S
Zr326       O356   2.364   1_565  S
O327        H368   0.990       .  S
O327        H371   0.990       .  S
O328        H361   0.990   1_565  S
O329       Zr349   2.392       .  S
O330       Zr350   2.395       .  S
O330        H357   0.966       .  S
O331       Zr343   2.410   1_545  S
O331        C333   1.280       .  A
O332       Zr350   2.474       .  S
O332        C333   1.296       .  A
C333        C416   1.442       .  S
O334       Zr346   2.404       .  S
O334        C336   1.279       .  A
O335       Zr349   2.474       .  S
O335        C336   1.296       .  A
C336        C376   1.440       .  S
O337       Zr346   2.404   1_545  S
O337        C339   1.279       .  A
O338       Zr350   2.468       .  S
O338        C339   1.295       .  A
C339        C389   1.438       .  S
O340       Zr343   2.400       .  S
O340        C342   1.279       .  A
O341       Zr349   2.469       .  S
O341        C342   1.295       .  A
C342        C408   1.436       .  S
Zr343       O344   2.436       .  S
Zr343       O345   2.435       .  S
Zr343       O351   2.365   1_565  S
Zr343       O352   2.366       .  S
Zr343       O355   2.364       .  S
Zr343       O353   2.365   1_565  S
O344        H364   0.990   1_565  S
O344        H369   0.990   1_565  S
O345        H365   0.990   1_565  S
Zr346       O347   2.435       .  S
Zr346       O348   2.436       .  S
Zr346       O352   2.361       .  S
Zr346       O351   2.367   1_565  S
Zr346       O356   2.364   1_565  S
Zr346       O354   2.366       .  S
O347        H363   0.990       .  S
O348        H362   0.990   1_565  S
O348        H372   0.990       .  S
Zr349       O352   2.390       .  S
Zr349       O354   2.394       .  S
Zr349       O355   2.397       .  S
Zr350       O351   2.398       .  S
Zr350       O353   2.388       .  S
Zr350       O356   2.394       .  S
O351        H359   0.966       .  S
O354        H358   0.966       .  S
O355        H360   0.966       .  S
C373        C374   1.211       .  T
C374        C375   1.422       .  S
C375        C376   1.211       .  T
C377        C378   1.223       .  T
C378        C379   1.440       .  S
C379        C380   1.223       .  T
C381        C382   1.211       .  T
C382        C383   1.422       .  S
C383        C384   1.211       .  T
C385        C386   1.223       .  T
C386        C387   1.439       .  S
C387        C388   1.222       .  T
C389        C390   1.209       .  T
C390        C391   1.418       .  S
C391        C392   1.209       .  T
C393        C394   1.224       .  T
C394        C395   1.441       .  S
C395        C396   1.224       .  T
C397        C398   1.205       .  T
C398        C399   1.413       .  S
C399        C400   1.206       .  T
C401        C402   1.221       .  T
C402        C403   1.436       .  S
C403        C404   1.221       .  T
C405        C406   1.208       .  T
C406        C407   1.417       .  S
C407        C408   1.208       .  T
C409        C410   1.223       .  T
C410        C411   1.441       .  S
C411        C412   1.224       .  T
C413        C414   1.211       .  T
C414        C415   1.422       .  S
C415        C416   1.212       .  T
C417        C418   1.224       .  T
C418        C419   1.440       .  S
C419        C420   1.223       .  T
C421        C422   1.209       .  T
C422        C423   1.419       .  S
C423        C424   1.210       .  T
C425        C426   1.225       .  T
C426        C427   1.442       .  S
C427        C428   1.224       .  T
C429        C430   1.211       .  T
C430        C431   1.422       .  S
C431        C432   1.212       .  T
C433        C434   1.223       .  T
C434        C435   1.439       .  S
C435        C436   1.223       .  T
C437        C438   1.211       .  T
C438        C439   1.421       .  S
C439        C440   1.211       .  T
C441        C442   1.209       .  T
C442        C443   1.419       .  S
C443        C444   1.210       .  T
C445        C446   1.211       .  T
C446        C447   1.420       .  S
C447        C448   1.210       .  T
C449        C450   1.208       .  T
C450        C451   1.415       .  S
C451        C452   1.207       .  T
C453        C454   1.210       .  T
C454        C455   1.421       .  S
C455        C456   1.211       .  T
C457        C458   1.225       .  T
C458        C459   1.442       .  S
C459        C460   1.225       .  T
C461        C462   1.212       .  T
C462        C463   1.422       .  S
C463        C464   1.211       .  T
C465        C466   1.221       .  T
C466        C467   1.436       .  S
C467        C468   1.221       .  T
C469        C470   1.211       .  T
C470        C471   1.420       .  S
C471        C472   1.210       .  T
C473        C474   1.222       .  T
C474        C475   1.439       .  S
C475        C476   1.222       .  T
C477        C478   1.210       .  T
C478        C479   1.419       .  S
C479        C480   1.209       .  T
C481        C482   1.221       .  T
C482        C483   1.437       .  S
C483        C484   1.222       .  T
C485        C486   1.208       .  T
C486        C487   1.418       .  S
C487        C488   1.209       .  T
C489        C490   1.209       .  T
C490        C491   1.419       .  S
C491        C492   1.210       .  T
C493        C494   1.208       .  T
C494        C495   1.416       .  S
C495        C496   1.207       .  T
C497        C498   1.212       .  T
C498        C499   1.424       .  S
C499        C500   1.213       .  T
C501        C502   1.211       .  T
C502        C503   1.421       .  S
C503        C504   1.210       .  T
C505        C506   1.212       .  T
C506        C507   1.422       .  S
C507        C508   1.211       .  T
C509        C510   1.211       .  T
C510        C511   1.422       .  S
C511        C512   1.212       .  T
C513        C514   1.211       .  T
C514        C515   1.421       .  S
C515        C516   1.210       .  T
